@<TRIPOS>MOLECULE
ZINC04719096
   30    31     0     0     0
SMALL
USER_CHARGES
[(3-acetyl-9-amino-4-methyl-7-thia-5-azabicyclo[4.3.0]nona-2,4,8,10-tetraen-8-yl)-amino-methylene]aminoformonitrile
@<TRIPOS>ATOM
      1 C1         -2.5063    0.0139    0.2456 C.3       1 <0>        -0.1175
      2 C2         -1.1984   -0.7234    0.1156 C.ar      1 <0>         0.2469
      3 C3         -0.0336   -0.0247   -0.2402 C.ar      1 <0>        -0.2409
      4 C4          1.1757   -0.7058   -0.3665 C.ar      1 <0>         0.0464
      5 C5          1.2046   -2.0959   -0.1202 C.ar      1 <0>        -0.2115
      6 C6          2.3406   -3.0042   -0.1850 C.2       1 <0>         0.3310
      7 C7          2.1280   -4.3376    0.0936 C.2       1 <0>        -0.3136
      8 S1          0.3846   -4.4129    0.4535 S.3       1 <0>         0.1506
      9 C8         -0.0274   -2.6994    0.2317 C.ar      1 <0>         0.1630
     10 N1         -1.1518   -2.0188    0.3352 N.ar      1 <0>        -0.4610
     11 C9          3.0696   -5.3941    0.0937 C.2       1 <0>         0.5866
     12 N2          4.3403   -5.1505   -0.2021 N.2       1 <0>        -0.5585
     13 C10         5.2418   -6.1621   -0.2020 C.1       1 <0>         0.3696
     14 N3          5.9976   -7.0101   -0.2019 N.1       1 <0>        -0.4565
     15 N4          2.6680   -6.6727    0.4001 N.pl3     1 <0>        -0.8529
     16 N5          3.6042   -2.5400   -0.5189 N.pl3     1 <0>        -0.8075
     17 C11        -0.0908    1.4223   -0.4849 C.2       1 <0>         0.4003
     18 O1         -1.1597    1.9955   -0.4853 O.2       1 <0>        -0.4400
     19 C12         1.1780    2.1938   -0.7417 C.3       1 <0>        -0.1932
     20 H1         -2.9642    0.1177   -0.7381 H         1 <0>         0.0955
     21 H2         -3.1749   -0.5450    0.9004 H         1 <0>         0.0815
     22 H3         -2.3258    1.0021    0.6686 H         1 <0>         0.1071
     23 H4          2.0763   -0.1786   -0.6444 H         1 <0>         0.1509
     24 H5          1.7393   -6.8507    0.6162 H         1 <0>         0.4084
     25 H6          3.3134   -7.3968    0.4001 H         1 <0>         0.4112
     26 H7          3.7397   -1.5993   -0.7129 H         1 <0>         0.4005
     27 H8          4.3524   -3.1560   -0.5585 H         1 <0>         0.4322
     28 H9          1.3687    2.2045   -1.7233 H         1 <0>         0.0911
     29 H10         1.0603    3.2164   -0.3834 H         1 <0>         0.0959
     30 H11         2.0056    1.7175   -0.2160 H         1 <0>         0.0844
@<TRIPOS>BOND
     1    1    2 1
     2    1   20 1
     3    1   21 1
     4    1   22 1
     5    2   10 ar
     6    2    3 ar
     7    3    4 ar
     8    3   17 1
     9    4    5 ar
    10    4   23 1
    11    5    9 ar
    12    5    6 1
    13    6    7 2
    14    6   16 1
    15    7    8 1
    16    7   11 1
    17    8    9 1
    18    9   10 ar
    19   11   12 2
    20   11   15 1
    21   12   13 1
    22   13   14 3
    23   15   24 1
    24   15   25 1
    25   16   26 1
    26   16   27 1
    27   17   18 2
    28   17   19 1
    29   19   28 1
    30   19   29 1
    31   19   30 1
@<TRIPOS>MOLECULE
ZINC31862605
   39    40     0     0     0
SMALL
USER_CHARGES

@<TRIPOS>ATOM
      1 C1         -0.0080    1.5258    0.0187 C.3       1 <0>        -0.1486
      2 C2          0.0021   -0.0041    0.0020 C.3       1 <0>        -0.0628
      3 C3          0.8405   -0.5214    1.1727 C.3       1 <0>        -0.1470
      4 C4         -1.4307   -0.5249    0.1314 C.3       1 <0>        -0.1462
      5 C5          0.6065   -0.4958   -1.3147 C.3       1 <0>        -0.0768
      6 H1          0.5362   -1.5829   -1.3506 H         1 <0>         0.0744
      7 C6         -0.1926    0.0886   -2.4728 C.3       1 <0>        -0.1252
      8 C7          0.2054   -0.6040   -3.7832 C.3       1 <0>        -0.0829
      9 C8          1.7009   -0.8920   -3.6749 C.2       1 <0>         0.0275
     10 C9          2.3237   -1.8879   -4.2818 C.2       1 <0>        -0.1861
     11 C10         3.7746   -2.0921   -4.0784 C.2       1 <0>         0.2860
     12 N1          4.5445   -3.0071   -4.5991 N.2       1 <0>        -0.6493
     13 S1          4.2170   -0.7828   -2.9476 S.3       1 <0>        -0.2069
     14 C11         2.5695    0.0103   -2.8017 C.3       1 <0>        -0.0211
     15 H2          2.5790    1.0398   -3.1596 H         1 <0>         0.1439
     16 C12         2.0749   -0.0949   -1.3632 C.3       1 <0>        -0.1033
     17 C13         1.5689   -2.7987   -5.1656 C.2       1 <0>         0.5697
     18 O1          0.3765   -2.6322   -5.3343 O.2       1 <0>        -0.5272
     19 N2          2.2018   -3.8145   -5.7853 N.am      1 <0>        -0.5648
     20 N3          1.5035   -4.6570   -6.6029 N.3       1 <0>        -0.6036
     21 H3          1.0173    1.8959    0.0168 H         1 <0>         0.0567
     22 H4         -0.5293    1.8954   -0.8643 H         1 <0>         0.0607
     23 H5         -0.5190    1.8760    0.9156 H         1 <0>         0.0555
     24 H6          0.4098   -0.1711    2.1107 H         1 <0>         0.0560
     25 H7          0.8476   -1.6113    1.1607 H         1 <0>         0.0552
     26 H8          1.8612   -0.1503    1.0805 H         1 <0>         0.0575
     27 H9         -2.0280   -0.1564   -0.7026 H         1 <0>         0.0602
     28 H10        -1.4236   -1.6148    0.1195 H         1 <0>         0.0556
     29 H11        -1.8613   -0.1746    1.0695 H         1 <0>         0.0560
     30 H12        -1.2566   -0.0632   -2.2916 H         1 <0>         0.0833
     31 H13         0.0114    1.1565   -2.5511 H         1 <0>         0.0710
     32 H14        -0.3483   -1.5359   -3.8977 H         1 <0>         0.1214
     33 H15         0.0111    0.0551   -4.6294 H         1 <0>         0.1001
     34 H16         5.4891   -3.0284   -4.3797 H         1 <0>         0.3642
     35 H17         2.1988    0.8693   -0.8702 H         1 <0>         0.0885
     36 H18         2.6674   -0.8433   -0.8369 H         1 <0>         0.0869
     37 H19         3.1532   -3.9473   -5.6507 H         1 <0>         0.4172
     38 H20         1.0293   -4.1439   -7.3308 H         1 <0>         0.3454
     39 H21         2.1075   -5.3644   -6.9939 H         1 <0>         0.3589
@<TRIPOS>BOND
     1    1    2 1
     2    1   21 1
     3    1   22 1
     4    1   23 1
     5    2    3 1
     6    2    4 1
     7    2    5 1
     8    3   24 1
     9    3   25 1
    10    3   26 1
    11    4   27 1
    12    4   28 1
    13    4   29 1
    14    5    6 1
    15    5   16 1
    16    5    7 1
    17    7    8 1
    18    7   30 1
    19    7   31 1
    20    8    9 1
    21    8   32 1
    22    8   33 1
    23    9   14 1
    24    9   10 2
    25   10   11 1
    26   10   17 1
    27   11   12 2
    28   11   13 1
    29   12   34 1
    30   13   14 1
    31   14   15 1
    32   14   16 1
    33   16   35 1
    34   16   36 1
    35   17   18 2
    36   17   19 am
    37   19   20 1
    38   19   37 1
    39   20   38 1
    40   20   39 1
@<TRIPOS>MOLECULE
ZINC12360091
   36    39     0     0     0
SMALL
USER_CHARGES

@<TRIPOS>ATOM
      1 C1         -0.0166    1.3743    0.0096 C.ar      1 <0>        -0.0959
      2 C2          1.1700    2.0939    0.0021 C.ar      1 <0>        -0.1282
      3 C3          2.3749    1.4505   -0.0132 C.ar      1 <0>        -0.0587
      4 C4          2.4184    0.0538   -0.0211 C.ar      1 <0>         0.0435
      5 C5          1.2173   -0.6752   -0.0131 C.ar      1 <0>         0.0509
      6 C6          0.0021   -0.0041    0.0020 C.ar      1 <0>        -0.1146
      7 N1          1.5799   -2.0072   -0.0233 N.pl3     1 <0>        -0.5920
      8 H1          0.9771   -2.7672   -0.0218 H         1 <0>         0.4236
      9 C7          2.9393   -2.0564   -0.0368 C.2       1 <0>         0.2393
     10 N2          3.4303   -0.8515   -0.0355 N.2       1 <0>        -0.4510
     11 C8          3.7573   -3.3220   -0.0502 C.3       1 <0>         0.1708
     12 H2          4.3284   -3.3953    0.8754 H         1 <0>         0.1458
     13 C9          4.7175   -3.2961   -1.2411 C.3       1 <0>         0.1765
     14 H3          4.1464   -3.2228   -2.1667 H         1 <0>         0.1158
     15 C10         5.5355   -4.5617   -1.2545 C.2       1 <0>         0.2520
     16 N3          5.6323   -5.4160   -2.3087 N.pl3     1 <0>        -0.5885
     17 H4          5.1946   -5.3195   -3.1690 H         1 <0>         0.4229
     18 C11         6.4692   -6.4456   -1.9275 C.ar      1 <0>         0.0527
     19 C12         6.9415   -7.5905   -2.5549 C.ar      1 <0>        -0.1138
     20 C13         7.7901   -8.4397   -1.8773 C.ar      1 <0>        -0.0960
     21 C14         8.1745   -8.1575   -0.5741 C.ar      1 <0>        -0.1270
     22 C15         7.7198   -7.0357    0.0591 C.ar      1 <0>        -0.0607
     23 C16         6.8587   -6.1603   -0.6080 C.ar      1 <0>         0.0473
     24 N4          6.2565   -4.9937   -0.2613 N.2       1 <0>        -0.4732
     25 O1          5.5872   -2.1680   -1.1274 O.3       1 <0>        -0.5135
     26 O2          2.8876   -4.4501   -0.1639 O.3       1 <0>        -0.5353
     27 H5         -0.9611    1.8978    0.0259 H         1 <0>         0.1320
     28 H6          1.1406    3.1734    0.0082 H         1 <0>         0.1316
     29 H7          3.2924    2.0203   -0.0196 H         1 <0>         0.1317
     30 H8         -0.9243   -0.5592    0.0078 H         1 <0>         0.1238
     31 H9          6.6451   -7.8149   -3.5689 H         1 <0>         0.1242
     32 H10         8.1580   -9.3309   -2.3640 H         1 <0>         0.1323
     33 H11         8.8396   -8.8317   -0.0551 H         1 <0>         0.1318
     34 H12         8.0251   -6.8259    1.0736 H         1 <0>         0.1312
     35 H13         6.1274   -2.1671   -0.3253 H         1 <0>         0.3918
     36 H14         2.3474   -4.4511   -0.9660 H         1 <0>         0.3769
@<TRIPOS>BOND
     1    1    6 ar
     2    1    2 ar
     3    1   27 1
     4    2    3 ar
     5    2   28 1
     6    3    4 ar
     7    3   29 1
     8    4   10 1
     9    4    5 ar
    10    5    6 ar
    11    5    7 1
    12    6   30 1
    13    7    8 1
    14    7    9 1
    15    9   10 2
    16    9   11 1
    17   11   12 1
    18   11   13 1
    19   11   26 1
    20   13   14 1
    21   13   15 1
    22   13   25 1
    23   15   24 2
    24   15   16 1
    25   16   17 1
    26   16   18 1
    27   18   23 ar
    28   18   19 ar
    29   19   20 ar
    30   19   31 1
    31   20   21 ar
    32   20   32 1
    33   21   22 ar
    34   21   33 1
    35   22   23 ar
    36   22   34 1
    37   23   24 1
    38   25   35 1
    39   26   36 1
@<TRIPOS>MOLECULE
ZINC41805009
   35    36     0     0     0
SMALL
USER_CHARGES

@<TRIPOS>ATOM
      1 C1          0.8346   -0.3883    1.0703 C.3       1 <0>        -0.1681
      2 C2          0.3942   -0.0490   -0.3551 C.3       1 <0>        -0.0019
      3 H1          0.6443    0.9888   -0.5753 H         1 <0>         0.1757
      4 C3          1.1035   -0.9542   -1.3290 C.2       1 <0>         0.5233
      5 O1          0.5097   -1.8808   -1.8386 O.2       1 <0>        -0.5237
      6 N1          2.3978   -0.7342   -1.6335 N.am      1 <0>        -0.8331
      7 N2         -1.0573   -0.2395   -0.4775 N.4       1 <0>        -0.4690
      8 C4         -1.5550    0.5195   -1.6326 C.3       1 <0>         0.0207
      9 C5         -3.0478    0.2761   -1.7659 C.3       1 <0>        -0.1256
     10 C6         -3.2950   -1.2246   -1.9798 C.3       1 <0>        -0.1226
     11 S1         -2.7426   -1.6221   -3.6650 S.3       1 <0>        -0.0902
     12 C7         -1.1820   -0.8058   -3.7838 C.ar      1 <0>        -0.0337
     13 C8         -0.7662    0.1197   -2.8443 C.ar      1 <0>        -0.0946
     14 C9          0.4720    0.7347   -3.0123 C.ar      1 <0>        -0.0914
     15 C10         1.2782    0.4268   -4.0868 C.ar      1 <0>        -0.1163
     16 C11         0.8636   -0.5067   -5.0191 C.ar      1 <0>        -0.0833
     17 C12        -0.3619   -1.1189   -4.8679 C.ar      1 <0>        -0.0936
     18 C13        -1.3307    1.9873   -1.3752 C.2       1 <0>         0.5037
     19 O2         -0.9265    2.3606   -0.2872 O.co2     1 <0>        -0.6666
     20 O3         -1.5535    2.8015   -2.2549 O.co2     1 <0>        -0.6140
     21 H2          1.9209   -0.3299    1.1386 H         1 <0>         0.1023
     22 H3          0.3881    0.3210    1.7671 H         1 <0>         0.0998
     23 H4          0.5086   -1.3979    1.3207 H         1 <0>         0.0775
     24 H5          2.8728    0.0068   -1.2259 H         1 <0>         0.4078
     25 H6          2.8544   -1.3169   -2.2604 H         1 <0>         0.4154
     26 H7         -1.2581   -1.2197   -0.6073 H         1 <0>         0.4092
     27 H8         -3.5529    0.6027   -0.8568 H         1 <0>         0.1033
     28 H9         -3.4334    0.8342   -2.6190 H         1 <0>         0.1257
     29 H10        -2.7218   -1.8026   -1.2549 H         1 <0>         0.0795
     30 H11        -4.3574   -1.4448   -1.8754 H         1 <0>         0.1335
     31 H12         0.8054    1.4646   -2.2894 H         1 <0>         0.1258
     32 H13         2.2349    0.9148   -4.2007 H         1 <0>         0.1296
     33 H14         1.4952   -0.7537   -5.8597 H         1 <0>         0.1329
     34 H15        -0.6899   -1.8473   -5.5947 H         1 <0>         0.1307
     35 H16        -1.5115    0.0887    0.3615 H         1 <0>         0.4314
@<TRIPOS>BOND
     1    1    2 1
     2    1   21 1
     3    1   22 1
     4    1   23 1
     5    2    3 1
     6    2    4 1
     7    2    7 1
     8    4    5 2
     9    4    6 am
    10    6   24 1
    11    6   25 1
    12    7    8 1
    13    7   26 1
    14    7   35 1
    15    8   13 1
    16    8    9 1
    17    8   18 1
    18    9   10 1
    19    9   27 1
    20    9   28 1
    21   10   11 1
    22   10   29 1
    23   10   30 1
    24   11   12 1
    25   12   17 ar
    26   12   13 ar
    27   13   14 ar
    28   14   15 ar
    29   14   31 1
    30   15   16 ar
    31   15   32 1
    32   16   17 ar
    33   16   33 1
    34   17   34 1
    35   18   19 2
    36   18   20 1
@<TRIPOS>MOLECULE
ZINC48838518
   43    44     0     0     0
SMALL
USER_CHARGES

@<TRIPOS>ATOM
      1 C1         -0.0187    1.5258    0.0104 C.3       1 <0>        -0.1164
      2 C2          1.4167    2.0553   -0.0004 C.3       1 <0>        -0.1287
      3 C3          2.1328    1.5619   -1.2592 C.3       1 <0>        -0.1269
      4 C4          2.1536    0.0321   -1.2676 C.3       1 <0>         0.1299
      5 H1          2.6808   -0.3290   -0.3846 H         1 <0>         0.1116
      6 C5          0.7182   -0.4975   -1.2568 C.3       1 <0>         0.0214
      7 H2          0.1910   -0.1364   -2.1398 H         1 <0>         0.1435
      8 C6          0.0021   -0.0041    0.0020 C.3       1 <0>        -0.1378
      9 N1          0.7381   -1.9663   -1.2649 N.4       1 <0>        -0.6352
     10 N2          2.8393   -0.4404   -2.4730 N.am      1 <0>        -0.7669
     11 C7          4.1825   -0.5508   -2.4846 C.2       1 <0>         0.5286
     12 O1          4.8235   -0.2591   -1.4972 O.2       1 <0>        -0.4778
     13 C8          4.8879   -1.0368   -3.7245 C.3       1 <0>        -0.1008
     14 C9          6.3967   -1.0692   -3.4732 C.3       1 <0>        -0.1216
     15 C10         6.9163    0.3558   -3.1920 C.3       1 <0>        -0.0857
     16 C11         8.3043    0.3964   -3.8783 C.3       1 <0>        -0.1218
     17 C12         8.0699   -0.4224   -5.1720 C.3       1 <0>        -0.1187
     18 C13         7.1302   -1.5640   -4.7322 C.3       1 <0>        -0.0998
     19 C14         6.7063   -1.9721   -2.3071 C.2       1 <0>         0.5196
     20 O2          5.8034   -2.5541   -1.7302 O.co2     1 <0>        -0.7070
     21 O3          7.8595   -2.1207   -1.9404 O.co2     1 <0>        -0.6886
     22 H3         -0.5289    1.8773    0.9072 H         1 <0>         0.0846
     23 H4         -0.5459    1.8868   -0.8726 H         1 <0>         0.0739
     24 H5          1.4019    3.1452    0.0056 H         1 <0>         0.0794
     25 H6          1.9439    1.6943    0.8826 H         1 <0>         0.0736
     26 H7          1.6057    1.9230   -2.1423 H         1 <0>         0.0723
     27 H8          3.1554    1.9392   -1.2670 H         1 <0>         0.0897
     28 H9          0.5293   -0.3651    0.8851 H         1 <0>         0.0914
     29 H10        -1.0205   -0.3814    0.0098 H         1 <0>         0.0906
     30 H11         1.2261   -2.3006   -0.4474 H         1 <0>         0.4381
     31 H12        -0.2085   -2.3156   -1.2577 H         1 <0>         0.4324
     32 H13         2.3266   -0.6737   -3.2627 H         1 <0>         0.3916
     33 H14         4.5391   -2.0395   -3.9715 H         1 <0>         0.0861
     34 H15         4.6719   -0.3626   -4.5532 H         1 <0>         0.0740
     35 H16         6.2510    1.0983   -3.6326 H         1 <0>         0.0402
     36 H17         7.0163    0.5206   -2.1192 H         1 <0>         0.0670
     37 H18         8.5878    1.4217   -4.1162 H         1 <0>         0.0525
     38 H19         9.0591   -0.0788   -3.2518 H         1 <0>         0.0768
     39 H20         7.5909    0.1944   -5.9324 H         1 <0>         0.0541
     40 H21         9.0118   -0.8256   -5.5442 H         1 <0>         0.0589
     41 H22         7.7107   -2.4568   -4.4994 H         1 <0>         0.0666
     42 H23         6.4112   -1.7811   -5.5221 H         1 <0>         0.0487
     43 H24         1.2104   -2.2917   -2.0950 H         1 <0>         0.4367
@<TRIPOS>BOND
     1    1    8 1
     2    1    2 1
     3    1   22 1
     4    1   23 1
     5    2    3 1
     6    2   24 1
     7    2   25 1
     8    3    4 1
     9    3   26 1
    10    3   27 1
    11    4    5 1
    12    4    6 1
    13    4   10 1
    14    6    7 1
    15    6    8 1
    16    6    9 1
    17    8   28 1
    18    8   29 1
    19    9   30 1
    20    9   31 1
    21    9   43 1
    22   10   11 am
    23   10   32 1
    24   11   12 2
    25   11   13 1
    26   13   14 1
    27   13   33 1
    28   13   34 1
    29   14   18 1
    30   14   15 1
    31   14   19 1
    32   15   16 1
    33   15   35 1
    34   15   36 1
    35   16   17 1
    36   16   37 1
    37   16   38 1
    38   17   18 1
    39   17   39 1
    40   17   40 1
    41   18   41 1
    42   18   42 1
    43   19   20 2
    44   19   21 1
@<TRIPOS>MOLECULE
ZINC02568586
   34    36     0     0     0
SMALL
USER_CHARGES
4-(2-furyl)-2-(trifluoromethyl)-1,5,9-triazabicyclo[4.3.0]nona-6,8-diene-7-carbohydrazide
@<TRIPOS>ATOM
      1 C1          1.3606   -0.3952   -0.0131 C.2       1 <0>        -0.2137
      2 C2          0.0021   -0.0041    0.0020 C.2       1 <0>        -0.1696
      3 C3         -0.0162    1.3409    0.0094 C.2       1 <0>        -0.0860
      4 O1          1.2521    1.7826   -0.0003 O.3       1 <0>        -0.1708
      5 C4          2.0913    0.7342   -0.0140 C.2       1 <0>        -0.0233
      6 C5         -1.2504    2.2055    0.0202 C.3       1 <0>         0.1697
      7 H1         -2.1038    1.6246   -0.3297 H         1 <0>         0.1498
      8 C6         -1.5175    2.6961    1.4470 C.3       1 <0>        -0.1409
      9 C7         -0.2411    3.3524    1.9927 C.3       1 <0>         0.1268
     10 H2          0.4992    2.5859    2.2220 H         1 <0>         0.1359
     11 N1          0.2786    4.2531    0.9555 N.pl3     1 <0>        -0.3806
     12 C8         -0.1137    4.2258   -0.3373 C.2       1 <0>         0.3729
     13 C9          0.5950    5.2181   -1.0018 C.2       1 <0>        -0.3221
     14 C10         1.4305    5.8401   -0.0421 C.2       1 <0>         0.1062
     15 N2          1.2323    5.2593    1.1091 N.2       1 <0>        -0.2755
     16 C11         0.4965    5.5578   -2.4263 C.2       1 <0>         0.6048
     17 O2         -0.2663    4.9422   -3.1473 O.2       1 <0>        -0.5400
     18 N3          1.2509    6.5517   -2.9357 N.am      1 <0>        -0.5764
     19 N4          1.1591    6.8680   -4.2614 N.3       1 <0>        -0.6002
     20 N5         -1.0473    3.3605   -0.8675 N.pl3     1 <0>        -0.5768
     21 C12        -0.5684    4.1511    3.2560 C.3       1 <0>         0.4558
     22 F1         -1.0983    3.2932    4.2258 F         1 <0>        -0.1712
     23 F2          0.5988    4.7458    3.7472 F         1 <0>        -0.1594
     24 F3         -1.5048    5.1444    2.9502 F         1 <0>        -0.1710
     25 H3          1.7391   -1.4067   -0.0224 H         1 <0>         0.1540
     26 H4         -0.8564   -0.6594    0.0062 H         1 <0>         0.1556
     27 H5          3.1699    0.7886   -0.0243 H         1 <0>         0.2053
     28 H6         -2.3275    3.4254    1.4369 H         1 <0>         0.1154
     29 H7         -1.7944    1.8514    2.0778 H         1 <0>         0.1271
     30 H8          2.1140    6.6547   -0.2309 H         1 <0>         0.1943
     31 H9          1.8589    7.0425   -2.3610 H         1 <0>         0.3994
     32 H10         1.7802    7.6279   -4.4957 H         1 <0>         0.3578
     33 H11         1.3412    6.0610   -4.8391 H         1 <0>         0.3460
     34 H12        -0.7792    3.0622   -1.7933 H         1 <0>         0.4007
@<TRIPOS>BOND
     1    1    5 2
     2    1    2 1
     3    1   25 1
     4    2    3 2
     5    2   26 1
     6    3    4 1
     7    3    6 1
     8    4    5 1
     9    5   27 1
    10    6    7 1
    11    6   20 1
    12    6    8 1
    13    8    9 1
    14    8   28 1
    15    8   29 1
    16    9   10 1
    17    9   11 1
    18    9   21 1
    19   11   15 1
    20   11   12 1
    21   12   13 2
    22   12   20 1
    23   13   14 1
    24   13   16 1
    25   14   15 2
    26   14   30 1
    27   16   17 2
    28   16   18 am
    29   18   19 1
    30   18   31 1
    31   19   32 1
    32   19   33 1
    33   20   34 1
    34   21   22 1
    35   21   23 1
    36   21   24 1
@<TRIPOS>MOLECULE
ZINC37036836
   33    33     0     0     0
SMALL
USER_CHARGES

@<TRIPOS>ATOM
      1 C1         -0.0184    1.5028    0.0103 C.3       1 <0>        -0.0861
      2 C2          0.0021   -0.0041    0.0020 C.2       1 <0>         0.1339
      3 C3          0.0052   -0.6819   -1.1779 C.2       1 <0>        -0.2568
      4 S1          0.0311   -2.3703   -0.5894 S.3       1 <0>        -0.0074
      5 C4          0.0350   -1.9952    1.1584 C.2       1 <0>         0.3897
      6 N1          0.0225   -0.6750    1.1411 N.2       1 <0>        -0.5628
      7 N2          0.0522   -2.8613    2.2447 N.pl3     1 <0>        -0.7943
      8 S2         -0.0120   -0.0663   -2.8287 S.3       1 <0>         0.0199
      9 C5          0.0033   -1.5620   -3.8550 C.3       1 <0>        -0.1184
     10 C6         -0.0100   -1.1665   -5.3330 C.3       1 <0>        -0.6004
     11 S3          0.0054   -2.6622   -6.3593 S.o2      1 <0>         2.4218
     12 O1          1.2409   -3.3341   -6.1561 O.2       1 <0>        -0.9268
     13 O2         -1.2088   -3.3681   -6.1431 O.2       1 <0>        -0.9268
     14 C7         -0.0128   -1.9919   -8.0448 C.3       1 <0>        -0.5961
     15 C8         -0.0022   -3.1437   -9.0518 C.3       1 <0>        -0.1372
     16 C9         -0.0173   -2.5868  -10.4521 C.2       1 <0>         0.5257
     17 O3         -0.0349   -1.3868  -10.6273 O.2       1 <0>        -0.5377
     18 N3         -0.0113   -3.4222  -11.5097 N.am      1 <0>        -0.8534
     19 H1          1.0042    1.8801    0.0026 H         1 <0>         0.0794
     20 H2         -0.5455    1.8639   -0.8728 H         1 <0>         0.0762
     21 H3         -0.5286    1.8543    0.9071 H         1 <0>         0.0780
     22 H4          0.0648   -3.8203    2.1001 H         1 <0>         0.4222
     23 H5          0.0517   -2.5068    3.1476 H         1 <0>         0.4195
     24 H6          0.9025   -2.1399   -3.6416 H         1 <0>         0.1069
     25 H7         -0.8772   -2.1645   -3.6322 H         1 <0>         0.1067
     26 H8         -0.9092   -0.5886   -5.5464 H         1 <0>         0.1480
     27 H9          0.8706   -0.5640   -5.5558 H         1 <0>         0.1480
     28 H10        -0.9120   -1.3926   -8.1877 H         1 <0>         0.1441
     29 H11         0.8678   -1.3679   -8.1971 H         1 <0>         0.1441
     30 H12         0.8970   -3.7430   -8.9089 H         1 <0>         0.1145
     31 H13        -0.8828   -3.7677   -8.8995 H         1 <0>         0.1145
     32 H14         0.0028   -4.3819  -11.3695 H         1 <0>         0.4049
     33 H15        -0.0210   -3.0638  -12.4109 H         1 <0>         0.4063
@<TRIPOS>BOND
     1    1    2 1
     2    1   19 1
     3    1   20 1
     4    1   21 1
     5    2    6 1
     6    2    3 2
     7    3    4 1
     8    3    8 1
     9    4    5 1
    10    5    6 2
    11    5    7 1
    12    7   22 1
    13    7   23 1
    14    8    9 1
    15    9   10 1
    16    9   24 1
    17    9   25 1
    18   10   11 1
    19   10   26 1
    20   10   27 1
    21   11   12 2
    22   11   13 2
    23   11   14 1
    24   14   15 1
    25   14   28 1
    26   14   29 1
    27   15   16 1
    28   15   30 1
    29   15   31 1
    30   16   17 2
    31   16   18 am
    32   18   32 1
    33   18   33 1
@<TRIPOS>MOLECULE
ZINC40329584
   39    40     0     0     0
SMALL
USER_CHARGES

@<TRIPOS>ATOM
      1 C1         -0.2198    1.8496   -1.1641 C.ar      1 <0>        -0.0488
      2 C2          0.9292    2.5582   -1.4661 C.ar      1 <0>        -0.1224
      3 C3          2.1656    1.9487   -1.3627 C.ar      1 <0>         0.0736
      4 C4          2.2524    0.6217   -0.9539 C.ar      1 <0>         0.1731
      5 C5          1.0966   -0.0847   -0.6516 C.ar      1 <0>        -0.0789
      6 C6         -0.1360    0.5311   -0.7577 C.ar      1 <0>        -0.6411
      7 S1         -1.6033   -0.3661   -0.3744 S.o2      1 <0>         2.6932
      8 O1         -1.2202   -1.4145    0.5049 O.2       1 <0>        -0.9461
      9 O2         -2.5892    0.5968   -0.0280 O.2       1 <0>        -0.9438
     10 N1         -2.1166   -1.0864   -1.7745 N.pl3     1 <0>        -0.9712
     11 C7         -1.6462   -2.4295   -2.1223 C.3       1 <0>         0.1023
     12 C8         -2.6182   -3.4540   -1.5962 C.2       1 <0>         0.4993
     13 O3         -3.5458   -3.1066   -0.8963 O.2       1 <0>        -0.5221
     14 N2         -2.4568   -4.7563   -1.9036 N.am      1 <0>        -0.8553
     15 C9         -3.0410   -0.3805   -2.6652 C.3       1 <0>         0.1401
     16 C10        -4.2468   -1.2832   -2.9984 C.3       1 <0>        -0.1288
     17 C11        -4.5633   -0.9626   -4.4803 C.3       1 <0>        -0.1272
     18 C12        -3.1549   -0.7846   -5.0998 C.3       1 <0>        -0.1231
     19 C13        -2.3467   -0.0635   -4.0013 C.3       1 <0>        -0.1419
     20 N3          3.5010    0.0010   -0.8483 N.pl3     1 <0>        -0.8705
     21 F1          3.2878    2.6403   -1.6584 F         1 <0>        -0.1332
     22 H1         -1.1844    2.3291   -1.2417 H         1 <0>         0.1480
     23 H2          0.8602    3.5883   -1.7833 H         1 <0>         0.1473
     24 H3          1.1604   -1.1151   -0.3343 H         1 <0>         0.1467
     25 H4         -1.5742   -2.5200   -3.2061 H         1 <0>         0.1151
     26 H5         -0.6653   -2.5975   -1.6777 H         1 <0>         0.1123
     27 H6         -1.7150   -5.0341   -2.4634 H         1 <0>         0.4016
     28 H7         -3.0824   -5.4157   -1.5650 H         1 <0>         0.4048
     29 H8         -3.3825    0.5412   -2.1940 H         1 <0>         0.1100
     30 H9         -3.9799   -2.3338   -2.8839 H         1 <0>         0.0771
     31 H10        -5.0972   -1.0333   -2.3639 H         1 <0>         0.0754
     32 H11        -5.0903   -1.7925   -4.9510 H         1 <0>         0.0683
     33 H12        -5.1402   -0.0414   -4.5615 H         1 <0>         0.0710
     34 H13        -2.7117   -1.7547   -5.3248 H         1 <0>         0.0640
     35 H14        -3.2085   -0.1709   -5.9990 H         1 <0>         0.0683
     36 H15        -2.3521    1.0119   -4.1790 H         1 <0>         0.0757
     37 H16        -1.3220   -0.4348   -3.9871 H         1 <0>         0.0746
     38 H17         4.3080    0.4957   -1.0601 H         1 <0>         0.4056
     39 H18         3.5601   -0.9242   -0.5631 H         1 <0>         0.4066
@<TRIPOS>BOND
     1    1    6 ar
     2    1    2 ar
     3    1   22 1
     4    2    3 ar
     5    2   23 1
     6    3    4 ar
     7    3   21 1
     8    4    5 ar
     9    4   20 1
    10    5    6 ar
    11    5   24 1
    12    6    7 1
    13    7    8 2
    14    7    9 2
    15    7   10 1
    16   10   11 1
    17   10   15 1
    18   11   12 1
    19   11   25 1
    20   11   26 1
    21   12   13 2
    22   12   14 am
    23   14   27 1
    24   14   28 1
    25   15   19 1
    26   15   16 1
    27   15   29 1
    28   16   17 1
    29   16   30 1
    30   16   31 1
    31   17   18 1
    32   17   32 1
    33   17   33 1
    34   18   19 1
    35   18   34 1
    36   18   35 1
    37   19   36 1
    38   19   37 1
    39   20   38 1
    40   20   39 1
@<TRIPOS>MOLECULE
ZINC42809545
   39    40     0     0     0
SMALL
USER_CHARGES

@<TRIPOS>ATOM
      1 C1         -0.0187    1.5258    0.0104 C.3       1 <0>        -0.1618
      2 C2          0.0021   -0.0041    0.0020 C.3       1 <0>         0.2044
      3 H1         -1.0205   -0.3814    0.0098 H         1 <0>         0.1101
      4 C3          0.7309   -0.5033    1.2229 C.ar      1 <0>        -0.1398
      5 C4          2.0771   -0.8079    1.1475 C.ar      1 <0>        -0.0606
      6 C5          2.7469   -1.2653    2.2663 C.ar      1 <0>        -0.1540
      7 C6          2.0697   -1.4195    3.4645 C.ar      1 <0>         0.1344
      8 C7          0.7219   -1.1148    3.5412 C.ar      1 <0>        -0.1848
      9 C8          0.0533   -0.6512    2.4211 C.ar      1 <0>         0.1455
     10 F1         -1.2611   -0.3481    2.4960 F         1 <0>        -0.1223
     11 F2          2.7246   -1.8676    4.5580 F         1 <0>        -0.1268
     12 N1          0.6878   -0.4765   -1.2033 N.am      1 <0>        -0.7389
     13 C9          0.0062   -0.6081   -2.3585 C.2       1 <0>         0.7189
     14 O1         -1.1778   -0.3348   -2.4004 O.2       1 <0>        -0.5554
     15 N2          0.6370   -1.0428   -3.4674 N.am      1 <0>        -0.5262
     16 N3          2.0013   -1.3578   -3.4192 N.am      1 <0>        -0.4995
     17 C10         2.6322   -1.7924   -4.5281 C.2       1 <0>         0.5100
     18 O2          2.0185   -1.9109   -5.5682 O.2       1 <0>        -0.5059
     19 C11         4.0875   -2.1285   -4.4767 C.2       1 <0>         0.5269
     20 O3          4.7012   -2.0099   -3.4365 O.2       1 <0>        -0.5128
     21 N4          4.7183   -2.5631   -5.5855 N.am      1 <0>        -0.6655
     22 C12         6.1449   -2.8925   -5.5351 C.3       1 <0>         0.0685
     23 C13         7.0235   -2.4061   -6.6894 C.3       1 <0>        -0.1863
     24 C14         6.6762   -3.8910   -6.5655 C.3       1 <0>        -0.1822
     25 H2          1.0039    1.9031    0.0027 H         1 <0>         0.0631
     26 H3         -0.5459    1.8868   -0.8726 H         1 <0>         0.0733
     27 H4         -0.5289    1.8773    0.9072 H         1 <0>         0.0735
     28 H5          2.6058   -0.6886    0.2133 H         1 <0>         0.1380
     29 H6          3.7987   -1.5030    2.2062 H         1 <0>         0.1486
     30 H7          0.1931   -1.2347    4.4752 H         1 <0>         0.1539
     31 H8          1.6324   -0.6946   -1.1699 H         1 <0>         0.3915
     32 H9          0.1465   -1.1375   -4.2988 H         1 <0>         0.4475
     33 H10         2.4919   -1.2631   -2.5878 H         1 <0>         0.4308
     34 H11         4.2278   -2.6578   -6.4170 H         1 <0>         0.4169
     35 H12         6.5877   -2.9133   -4.5393 H         1 <0>         0.1453
     36 H13         6.5400   -1.8410   -7.4863 H         1 <0>         0.1014
     37 H14         8.0445   -2.1065   -6.4532 H         1 <0>         0.1085
     38 H15         7.4689   -4.5683   -6.2477 H         1 <0>         0.1098
     39 H16         5.9644   -4.3028   -7.2809 H         1 <0>         0.1021
@<TRIPOS>BOND
     1    1    2 1
     2    1   25 1
     3    1   26 1
     4    1   27 1
     5    2    3 1
     6    2    4 1
     7    2   12 1
     8    4    9 ar
     9    4    5 ar
    10    5    6 ar
    11    5   28 1
    12    6    7 ar
    13    6   29 1
    14    7    8 ar
    15    7   11 1
    16    8    9 ar
    17    8   30 1
    18    9   10 1
    19   12   13 am
    20   12   31 1
    21   13   14 2
    22   13   15 am
    23   15   16 1
    24   15   32 1
    25   16   17 am
    26   16   33 1
    27   17   18 2
    28   17   19 1
    29   19   20 2
    30   19   21 am
    31   21   22 1
    32   21   34 1
    33   22   24 1
    34   22   23 1
    35   22   35 1
    36   23   24 1
    37   23   36 1
    38   23   37 1
    39   24   38 1
    40   24   39 1
@<TRIPOS>MOLECULE
ZINC55992607
   44    45     0     0     0
SMALL
USER_CHARGES

@<TRIPOS>ATOM
      1 C1         -0.0184    1.5028    0.0103 C.3       1 <0>        -0.1052
      2 C2          0.0021   -0.0041    0.0020 C.2       1 <0>         0.1060
      3 C3          0.0079   -0.7962   -1.0952 C.2       1 <0>        -0.2425
      4 C4          0.0284   -2.1274   -0.6653 C.2       1 <0>         0.0662
      5 N1          0.0347   -2.1353    0.6435 N.2       1 <0>        -0.2797
      6 N2          0.0238   -0.8073    1.0894 N.pl3     1 <0>        -0.3209
      7 C5          0.0316   -0.3857    2.4270 C.ar      1 <0>         0.1407
      8 C6          0.7044    0.7744    2.7861 C.ar      1 <0>        -0.1023
      9 C7          0.7111    1.1880    4.1038 C.ar      1 <0>        -0.1313
     10 C8          0.0475    0.4461    5.0666 C.ar      1 <0>         0.1013
     11 C9         -0.6241   -0.7114    4.7103 C.ar      1 <0>        -0.1328
     12 C10        -0.6382   -1.1248    3.3926 C.ar      1 <0>        -0.0793
     13 F1          0.0559    0.8518    6.3553 F         1 <0>        -0.1322
     14 C11        -0.0058   -0.3272   -2.5273 C.3       1 <0>         0.2267
     15 H1         -0.6085    0.5774   -2.6076 H         1 <0>         0.0955
     16 C12         1.4249   -0.0286   -2.9799 C.3       1 <0>        -0.1576
     17 N3         -0.5789   -1.3730   -3.3782 N.am      1 <0>        -0.7170
     18 C13        -1.1559   -1.0462   -4.5515 C.2       1 <0>         0.5164
     19 O1         -1.2007    0.1138   -4.9029 O.2       1 <0>        -0.5336
     20 C14        -1.7455   -2.1220   -5.4268 C.3       1 <0>         0.1439
     21 H2         -2.5331   -2.6425   -4.8820 H         1 <0>         0.1167
     22 C15        -0.6517   -3.1179   -5.8176 C.3       1 <0>        -0.1615
     23 N4         -2.3074   -1.5145   -6.6357 N.am      1 <0>        -0.7296
     24 C16        -3.2956   -2.1388   -7.3068 C.2       1 <0>         0.7100
     25 O2         -3.7207   -3.2061   -6.9088 O.2       1 <0>        -0.5941
     26 N5         -3.8125   -1.5799   -8.4189 N.am      1 <0>        -0.8645
     27 H3          1.0042    1.8801    0.0026 H         1 <0>         0.0884
     28 H4         -0.5455    1.8639   -0.8728 H         1 <0>         0.0922
     29 H5         -0.5286    1.8543    0.9071 H         1 <0>         0.0791
     30 H6          0.0370   -2.9987   -1.3035 H         1 <0>         0.1870
     31 H7          1.2226    1.3528    2.0356 H         1 <0>         0.1438
     32 H8          1.2343    2.0904    4.3835 H         1 <0>         0.1484
     33 H9         -1.1411   -1.2887    5.4626 H         1 <0>         0.1476
     34 H10        -1.1658   -2.0251    3.1144 H         1 <0>         0.1449
     35 H11         1.4150    0.3106   -4.0157 H         1 <0>         0.0646
     36 H12         1.8514    0.7495   -2.3468 H         1 <0>         0.0664
     37 H13         2.0277   -0.9333   -2.8996 H         1 <0>         0.0601
     38 H14        -0.5431   -2.3007   -3.0972 H         1 <0>         0.4017
     39 H15        -1.0781   -3.8960   -6.4507 H         1 <0>         0.0773
     40 H16         0.1359   -2.5973   -6.3624 H         1 <0>         0.0646
     41 H17        -0.2336   -3.5698   -4.9181 H         1 <0>         0.0719
     42 H18        -1.9682   -0.6630   -6.9532 H         1 <0>         0.4067
     43 H19        -3.4733   -0.7284   -8.7364 H         1 <0>         0.3989
     44 H20        -4.5237   -2.0292   -8.9019 H         1 <0>         0.4171
@<TRIPOS>BOND
     1    1    2 1
     2    1   27 1
     3    1   28 1
     4    1   29 1
     5    2    6 1
     6    2    3 2
     7    3    4 1
     8    3   14 1
     9    4    5 2
    10    4   30 1
    11    5    6 1
    12    6    7 1
    13    7   12 ar
    14    7    8 ar
    15    8    9 ar
    16    8   31 1
    17    9   10 ar
    18    9   32 1
    19   10   11 ar
    20   10   13 1
    21   11   12 ar
    22   11   33 1
    23   12   34 1
    24   14   15 1
    25   14   16 1
    26   14   17 1
    27   16   35 1
    28   16   36 1
    29   16   37 1
    30   17   18 am
    31   17   38 1
    32   18   19 2
    33   18   20 1
    34   20   21 1
    35   20   22 1
    36   20   23 1
    37   22   39 1
    38   22   40 1
    39   22   41 1
    40   23   24 am
    41   23   42 1
    42   24   25 2
    43   24   26 am
    44   26   43 1
    45   26   44 1
@<TRIPOS>MOLECULE
ZINC04557161
   39    38     0     0     0
SMALL
USER_CHARGES
2-(2-amino-4-methylsulfanyl-butanoyl)amino-4-methyl-pentanoic acid
@<TRIPOS>ATOM
      1 C1          2.4051   -0.3820    0.9912 C.3       1 <0>        -0.1505
      2 C2          2.1627    1.1086    1.2367 C.3       1 <0>        -0.0937
      3 C3          3.5061    1.8304    1.3593 C.3       1 <0>        -0.1488
      4 C4          1.3729    1.6964    0.0655 C.3       1 <0>        -0.1100
      5 C5         -0.0262    1.0781    0.0324 C.3       1 <0>         0.0966
      6 H1          0.0574   -0.0080   -0.0050 H         1 <0>         0.1006
      7 C6         -0.7629    1.5675   -1.1878 C.2       1 <0>         0.4563
      8 O1         -1.7965    2.1808   -1.0638 O.co2     1 <0>        -0.6315
      9 N1         -0.7620    1.4701    1.2370 N.am      1 <0>        -0.6628
     10 C7         -1.7678    0.6978    1.6935 C.2       1 <0>         0.5004
     11 O2         -2.0637   -0.3217    1.1070 O.2       1 <0>        -0.5294
     12 C8         -2.5247    1.1010    2.9327 C.3       1 <0>         0.0212
     13 H2         -1.8285    1.5024    3.6691 H         1 <0>         0.1593
     14 C9         -3.5592    2.1695    2.5734 C.3       1 <0>        -0.1257
     15 C10        -4.2411    2.6685    3.8489 C.3       1 <0>        -0.1147
     16 S1         -5.4676    3.9353    3.4228 S.3       1 <0>        -0.2180
     17 C11        -6.1756    4.4161    5.0223 C.3       1 <0>        -0.1292
     18 H3          2.9723   -0.5109    0.0694 H         1 <0>         0.0608
     19 H4          2.9678   -0.8008    1.8256 H         1 <0>         0.0502
     20 H5          1.4480   -0.8963    0.9039 H         1 <0>         0.0538
     21 H6          1.5955    1.2375    2.1585 H         1 <0>         0.0592
     22 H7          4.0707    1.7067    0.4352 H         1 <0>         0.0590
     23 H8          3.3334    2.8913    1.5403 H         1 <0>         0.0539
     24 H9          4.0713    1.4074    2.1898 H         1 <0>         0.0521
     25 H10         1.8898    1.4759   -0.8684 H         1 <0>         0.0957
     26 H11         1.2901    2.7763    0.1887 H         1 <0>         0.0654
     27 H12        -0.5253    2.2855    1.7061 H         1 <0>         0.4003
     28 H13        -3.0629    3.0032    2.0766 H         1 <0>         0.1321
     29 H14        -4.3067    1.7414    1.9054 H         1 <0>         0.1100
     30 H15        -4.7373    1.8348    4.3456 H         1 <0>         0.0746
     31 H16        -3.4936    3.0966    4.5168 H         1 <0>         0.0976
     32 H17        -6.9335    5.1841    4.8680 H         1 <0>         0.1099
     33 H18        -6.6312    3.5457    5.4943 H         1 <0>         0.0783
     34 H19        -5.3875    4.8074    5.6656 H         1 <0>         0.0805
     35 H20        -3.8588   -0.4635    2.8290 H         1 <0>         0.4455
     36 H21        -2.5417   -0.7670    3.7980 H         1 <0>         0.4408
     37 O3         -0.2708    1.3221   -2.4123 O.co2     1 <0>        -0.7464
     38 N2         -3.2193   -0.0619    3.5127 N.4       1 <0>        -0.6293
     39 H22        -3.7547    0.2403    4.3350 H         1 <0>         0.4360
@<TRIPOS>BOND
     1    1    2 1
     2    1   18 1
     3    1   19 1
     4    1   20 1
     5    2    3 1
     6    2    4 1
     7    2   21 1
     8    3   22 1
     9    3   23 1
    10    3   24 1
    11    4    5 1
    12    4   25 1
    13    4   26 1
    14    5    6 1
    15    5    7 1
    16    5    9 1
    17    7    8 2
    18    7   37 1
    19    9   10 am
    20    9   27 1
    21   10   11 2
    22   10   12 1
    23   12   13 1
    24   12   14 1
    25   12   38 1
    26   14   15 1
    27   14   28 1
    28   14   29 1
    29   15   16 1
    30   15   30 1
    31   15   31 1
    32   16   17 1
    33   17   32 1
    34   17   33 1
    35   17   34 1
    36   35   38 1
    37   36   38 1
    38   38   39 1
@<TRIPOS>MOLECULE
ZINC37672359
   32    33     0     0     0
SMALL
USER_CHARGES

@<TRIPOS>ATOM
      1 C1         -0.0166    1.3766    0.0096 C.ar      1 <0>        -0.0746
      2 C2          1.1707    2.0859    0.0021 C.ar      1 <0>        -0.1467
      3 C3          2.3799    1.4157   -0.0135 C.ar      1 <0>        -0.0641
      4 C4          2.4059    0.0347   -0.0211 C.ar      1 <0>        -0.1869
      5 C5          1.2154   -0.6807   -0.0131 C.ar      1 <0>         0.2108
      6 C6          0.0021   -0.0041    0.0020 C.ar      1 <0>        -0.1919
      7 N1          1.2380   -2.0772   -0.0208 N.pl3     1 <0>        -0.8807
      8 C7          3.6711    2.1928   -0.0226 C.3       1 <0>         0.1756
      9 N2          4.1034    2.4378    1.3555 N.pl3     1 <0>        -0.5433
     10 C8          4.9737    1.4732    2.0326 C.3       1 <0>         0.1053
     11 C9          6.4150    1.8356    1.7830 C.2       1 <0>         0.4907
     12 O1          6.6884    2.8042    1.1063 O.2       1 <0>        -0.5212
     13 N3          7.4004    1.0833    2.3119 N.am      1 <0>        -0.8531
     14 C10         3.6890    3.5821    2.0189 C.2       1 <0>         0.3342
     15 N4          2.9105    4.5469    1.5772 N.2       1 <0>        -0.5840
     16 C11         2.6059    5.5811    2.3412 C.2       1 <0>         0.0822
     17 C12         3.1296    5.5996    3.5903 C.2       1 <0>        -0.2732
     18 S1          4.0532    4.0716    3.5874 S.3       1 <0>         0.0596
     19 H1         -0.9594    1.9032    0.0259 H         1 <0>         0.1209
     20 H2          1.1532    3.1658    0.0080 H         1 <0>         0.1271
     21 H3          3.3508   -0.4882   -0.0336 H         1 <0>         0.1157
     22 H4         -0.9254   -0.5574    0.0082 H         1 <0>         0.1183
     23 H5          2.0857   -2.5485   -0.0317 H         1 <0>         0.3968
     24 H6          0.4060   -2.5758   -0.0152 H         1 <0>         0.3981
     25 H7          4.4360    1.6203   -0.5471 H         1 <0>         0.0863
     26 H8          3.5183    3.1453   -0.5302 H         1 <0>         0.0987
     27 H9          4.7743    1.4934    3.1040 H         1 <0>         0.1084
     28 H10         4.7782    0.4732    1.6454 H         1 <0>         0.1210
     29 H11         7.1818    0.3086    2.8532 H         1 <0>         0.4027
     30 H12         8.3281    1.3166    2.1513 H         1 <0>         0.4055
     31 H13         1.9680    6.3766    1.9854 H         1 <0>         0.1702
     32 H14         3.0166    6.3344    4.3737 H         1 <0>         0.1914
@<TRIPOS>BOND
     1    1    6 ar
     2    1    2 ar
     3    1   19 1
     4    2    3 ar
     5    2   20 1
     6    3    4 ar
     7    3    8 1
     8    4    5 ar
     9    4   21 1
    10    5    6 ar
    11    5    7 1
    12    6   22 1
    13    7   23 1
    14    7   24 1
    15    8    9 1
    16    8   25 1
    17    8   26 1
    18    9   10 1
    19    9   14 1
    20   10   11 1
    21   10   27 1
    22   10   28 1
    23   11   12 2
    24   11   13 am
    25   13   29 1
    26   13   30 1
    27   14   18 1
    28   14   15 2
    29   15   16 1
    30   16   17 2
    31   16   31 1
    32   17   18 1
    33   17   32 1
@<TRIPOS>MOLECULE
ZINC41834016
   42    42     0     0     0
SMALL
USER_CHARGES

@<TRIPOS>ATOM
      1 C1         -3.4334    1.2905   -0.4423 C.3       1 <0>        -0.1515
      2 C2         -2.2214    0.3961   -0.1737 C.3       1 <0>        -0.1192
      3 C3         -2.6848   -1.0515    0.0019 C.3       1 <0>        -0.1159
      4 C4         -1.4728   -1.9459    0.2704 C.3       1 <0>        -0.0312
      5 C5         -0.7663   -1.4784    1.5444 C.3       1 <0>        -0.1496
      6 C6         -0.5186   -1.8615   -0.8930 C.2       1 <0>         0.5073
      7 O1          0.5260   -1.2427   -0.7810 O.co2     1 <0>        -0.6399
      8 O2         -0.7912   -2.4119   -1.9461 O.co2     1 <0>        -0.6592
      9 N1         -1.9176   -3.3357    0.4390 N.4       1 <0>        -0.4824
     10 C7         -0.7883   -4.1600    0.8896 C.3       1 <0>         0.0230
     11 C8          0.1950   -4.3536   -0.2664 C.3       1 <0>        -0.1658
     12 C9          1.3713   -5.2122    0.2029 C.3       1 <0>        -0.0927
     13 C10         0.8544   -6.5756    0.6666 C.3       1 <0>        -0.1179
     14 C11        -0.1289   -6.3820    1.8226 C.3       1 <0>        -0.1028
     15 C12        -1.3051   -5.5234    1.3533 C.3       1 <0>        -0.1426
     16 C13         0.1555   -7.2635   -0.4776 C.2       1 <0>         0.5143
     17 O3          0.0782   -6.7171   -1.5576 O.2       1 <0>        -0.5235
     18 N2         -0.3839   -8.4859   -0.3008 N.am      1 <0>        -0.8580
     19 H1         -3.1033    2.3217   -0.5674 H         1 <0>         0.0601
     20 H2         -3.9368    0.9574   -1.3499 H         1 <0>         0.0555
     21 H3         -4.1236    1.2294    0.3992 H         1 <0>         0.0520
     22 H4         -1.5313    0.4571   -1.0152 H         1 <0>         0.0795
     23 H5         -1.7181    0.7291    0.7339 H         1 <0>         0.0698
     24 H6         -3.3749   -1.1125    0.8433 H         1 <0>         0.0694
     25 H7         -3.1881   -1.3845   -0.9058 H         1 <0>         0.0818
     26 H8         -1.4564   -1.5394    2.3859 H         1 <0>         0.0577
     27 H9          0.0972   -2.1156    1.7358 H         1 <0>         0.0747
     28 H10        -0.4362   -0.4471    1.4193 H         1 <0>         0.1035
     29 H11        -2.6556   -3.3716    1.1262 H         1 <0>         0.4026
     30 H12        -0.2827   -3.6625    1.7173 H         1 <0>         0.1350
     31 H13        -0.3105   -4.8512   -1.0940 H         1 <0>         0.1121
     32 H14         0.5632   -3.3823   -0.5967 H         1 <0>         0.1231
     33 H15         2.0718   -5.3501   -0.6206 H         1 <0>         0.0851
     34 H16         1.8768   -4.7147    1.0305 H         1 <0>         0.0747
     35 H17         1.6924   -7.1873    1.0009 H         1 <0>         0.1075
     36 H18        -0.4971   -7.3533    2.1529 H         1 <0>         0.0822
     37 H19         0.3767   -5.8845    2.6502 H         1 <0>         0.0866
     38 H20        -2.0057   -5.3855    2.1769 H         1 <0>         0.0845
     39 H21        -1.8107   -6.0210    0.5257 H         1 <0>         0.0805
     40 H22        -0.3221   -8.9229    0.5630 H         1 <0>         0.4002
     41 H23        -0.8338   -8.9287   -1.0373 H         1 <0>         0.4027
     42 H24        -2.2609   -3.6882   -0.4419 H         1 <0>         0.4268
@<TRIPOS>BOND
     1    1    2 1
     2    1   19 1
     3    1   20 1
     4    1   21 1
     5    2    3 1
     6    2   22 1
     7    2   23 1
     8    3    4 1
     9    3   24 1
    10    3   25 1
    11    4    5 1
    12    4    6 1
    13    4    9 1
    14    5   26 1
    15    5   27 1
    16    5   28 1
    17    6    7 2
    18    6    8 1
    19    9   10 1
    20    9   29 1
    21    9   42 1
    22   10   15 1
    23   10   11 1
    24   10   30 1
    25   11   12 1
    26   11   31 1
    27   11   32 1
    28   12   13 1
    29   12   33 1
    30   12   34 1
    31   13   14 1
    32   13   16 1
    33   13   35 1
    34   14   15 1
    35   14   36 1
    36   14   37 1
    37   15   38 1
    38   15   39 1
    39   16   17 2
    40   16   18 am
    41   18   40 1
    42   18   41 1
@<TRIPOS>MOLECULE
ZINC44858359
   35    35     0     0     0
SMALL
USER_CHARGES

@<TRIPOS>ATOM
      1 C1          1.1042    2.2565    0.2447 C.3       1 <0>        -0.0781
      2 C2          0.8743    0.7680    0.2948 C.2       1 <0>         0.0936
      3 C3          0.5532   -0.0494   -0.7938 C.2       1 <0>        -0.2610
      4 C4          0.4295   -1.3181   -0.3398 C.2       1 <0>         0.0840
      5 N1          0.6640   -1.3040    0.9891 N.pl3     1 <0>        -0.4750
      6 H1          0.6443   -2.0728    1.5802 H         1 <0>         0.4422
      7 N2          0.9461    0.0162    1.3632 N.2       1 <0>        -0.2937
      8 C5          0.3755    0.4031   -2.2203 C.3       1 <0>         0.2047
      9 N3          1.6891    0.5642   -2.8487 N.am      1 <0>        -0.7273
     10 C6          1.7773    0.9647   -4.1326 C.2       1 <0>         0.5258
     11 O1          0.7705    1.1102   -4.7930 O.2       1 <0>        -0.4785
     12 C7          3.1270    1.2315   -4.7476 C.3       1 <0>        -0.0982
     13 H2          3.9010    1.1178   -3.9886 H         1 <0>         0.1063
     14 C8          3.3759    0.2366   -5.8829 C.3       1 <0>        -0.0745
     15 C9          3.2442   -1.1909   -5.3481 C.3       1 <0>        -0.1502
     16 C10         2.3476    0.4621   -6.9932 C.3       1 <0>        -0.1587
     17 C11         3.1614    2.6357   -5.2936 C.2       1 <0>         0.2831
     18 S1          1.8216    3.5070   -5.3439 S.2       1 <0>        -0.3944
     19 N4          4.3215    3.1571   -5.7396 N.pl3     1 <0>        -0.7828
     20 H3          2.1587    2.4550    0.0530 H         1 <0>         0.0770
     21 H4          0.5019    2.6905   -0.5534 H         1 <0>         0.0817
     22 H5          0.8184    2.7006    1.1981 H         1 <0>         0.0748
     23 H6          0.1863   -2.1863   -0.9343 H         1 <0>         0.1793
     24 H7         -0.2006   -0.3421   -2.7688 H         1 <0>         0.0729
     25 H8         -0.1541    1.3556   -2.2361 H         1 <0>         0.0777
     26 H9          2.4953    0.3828   -2.3407 H         1 <0>         0.3954
     27 H10         4.3795    0.3840   -6.2817 H         1 <0>         0.0781
     28 H11         2.2126   -1.3720   -5.0461 H         1 <0>         0.0628
     29 H12         3.5239   -1.8985   -6.1285 H         1 <0>         0.0659
     30 H13         3.9022   -1.3190   -4.4886 H         1 <0>         0.0574
     31 H14         2.3615    1.5097   -7.2939 H         1 <0>         0.0562
     32 H15         2.5945   -0.1651   -7.8498 H         1 <0>         0.0551
     33 H16         1.3544    0.2023   -6.6269 H         1 <0>         0.0834
     34 H17         5.1185    2.6054   -5.7771 H         1 <0>         0.3951
     35 H18         4.3594    4.0839   -6.0231 H         1 <0>         0.4199
@<TRIPOS>BOND
     1    1    2 1
     2    1   20 1
     3    1   21 1
     4    1   22 1
     5    2    7 2
     6    2    3 1
     7    3    4 2
     8    3    8 1
     9    4    5 1
    10    4   23 1
    11    5    6 1
    12    5    7 1
    13    8    9 1
    14    8   24 1
    15    8   25 1
    16    9   10 am
    17    9   26 1
    18   10   11 2
    19   10   12 1
    20   12   13 1
    21   12   14 1
    22   12   17 1
    23   14   15 1
    24   14   16 1
    25   14   27 1
    26   15   28 1
    27   15   29 1
    28   15   30 1
    29   16   31 1
    30   16   32 1
    31   16   33 1
    32   17   18 2
    33   17   19 1
    34   19   34 1
    35   19   35 1
@<TRIPOS>MOLECULE
ZINC52907289
   29    29     0     0     0
SMALL
USER_CHARGES

@<TRIPOS>ATOM
      1 C1         -0.0167    1.3794    0.0096 C.ar      1 <0>        -0.0509
      2 C2          1.1661    2.0942    0.0022 C.ar      1 <0>        -0.2095
      3 C3          2.3809    1.4277   -0.0130 C.ar      1 <0>         0.1757
      4 C4          2.4052    0.0278   -0.0208 C.ar      1 <0>        -0.1193
      5 C5          1.2043   -0.6835   -0.0132 C.ar      1 <0>         0.0314
      6 C6          0.0021   -0.0041    0.0020 C.ar      1 <0>        -0.1510
      7 Cl1         1.2219   -2.4194   -0.0232 Cl        1 <0>        -0.0452
      8 C7          3.6960   -0.6931   -0.0375 C.2       1 <0>         0.4316
      9 N1          4.2754   -1.0164    1.0823 N.2       1 <0>        -0.4089
     10 O1          3.6695   -0.6778    2.3165 O.3       1 <0>        -0.4041
     11 N2          4.2885   -1.0242   -1.2445 N.pl3     1 <0>        -0.8259
     12 O2          3.5432    2.1294   -0.0208 O.3       1 <0>        -0.2997
     13 C8          3.4405    3.5547   -0.0126 C.3       1 <0>         0.0621
     14 C9          4.8425    4.1671   -0.0232 C.3       1 <0>        -0.1221
     15 C10         4.7326    5.6931   -0.0144 C.3       1 <0>         0.0813
     16 O3          6.0421    6.2651   -0.0243 O.3       1 <0>        -0.5713
     17 H1         -0.9608    1.9036    0.0260 H         1 <0>         0.1404
     18 H2          1.1437    3.1739    0.0078 H         1 <0>         0.1388
     19 H3         -0.9270   -0.5547    0.0083 H         1 <0>         0.1411
     20 H4          4.1734   -0.9592    3.0924 H         1 <0>         0.3970
     21 H5          3.8568   -0.7832   -2.0790 H         1 <0>         0.4115
     22 H6          5.1353   -1.4971   -1.2554 H         1 <0>         0.4080
     23 H7          2.8932    3.8847   -0.8956 H         1 <0>         0.0686
     24 H8          2.9105    3.8757    0.8842 H         1 <0>         0.0684
     25 H9          5.3898    3.8372    0.8599 H         1 <0>         0.0833
     26 H10         5.3724    3.8462   -0.9200 H         1 <0>         0.0830
     27 H11         4.1853    6.0231   -0.8974 H         1 <0>         0.0499
     28 H12         4.2027    6.0141    0.8824 H         1 <0>         0.0500
     29 H13         6.0490    7.2321   -0.0194 H         1 <0>         0.3856
@<TRIPOS>BOND
     1    1    6 ar
     2    1    2 ar
     3    1   17 1
     4    2    3 ar
     5    2   18 1
     6    3    4 ar
     7    3   12 1
     8    4    5 ar
     9    4    8 1
    10    5    6 ar
    11    5    7 1
    12    6   19 1
    13    8    9 2
    14    8   11 1
    15    9   10 1
    16   10   20 1
    17   11   21 1
    18   11   22 1
    19   12   13 1
    20   13   14 1
    21   13   23 1
    22   13   24 1
    23   14   15 1
    24   14   25 1
    25   14   26 1
    26   15   16 1
    27   15   27 1
    28   15   28 1
    29   16   29 1
@<TRIPOS>MOLECULE
ZINC18194946
   30    32     0     0     0
SMALL
USER_CHARGES
8-piperazin-1-yl-9H-purin-6-amine
@<TRIPOS>ATOM
      1 C1          0.6785   -2.6015   -0.0184 C.ar      1 <0>         0.3621
      2 N1         -0.6009   -2.2745   -0.0044 N.ar      1 <0>        -0.5650
      3 C2         -0.9856   -1.0025    0.0061 C.ar      1 <0>         0.4510
      4 C3          0.0021   -0.0041    0.0020 C.ar      1 <0>        -0.0599
      5 C4          1.3483   -0.4030   -0.0130 C.ar      1 <0>         0.3115
      6 N2          1.6377   -1.6996   -0.0227 N.ar      1 <0>        -0.5377
      7 N3          2.0908    0.7555   -0.0138 N.pl3     1 <0>        -0.5782
      8 H1          3.0887    0.8189   -0.0229 H         1 <0>         0.4396
      9 C5          1.2131    1.8043    0.0002 C.2       1 <0>         0.4364
     10 N4         -0.0163    1.3527    0.0095 N.2       1 <0>        -0.4636
     11 N5          1.5693    3.1378    0.0039 N.pl3     1 <0>        -0.4552
     12 C6          2.4312    3.4559   -1.1431 C.3       1 <0>         0.0200
     13 C7          2.8676    4.9205   -1.0591 C.3       1 <0>         0.0053
     14 C8          0.8163    5.4651    0.1045 C.3       1 <0>         0.0003
     15 C9          0.3798    4.0006    0.0205 C.3       1 <0>         0.0422
     16 N6         -2.3304   -0.6689    0.0207 N.pl3     1 <0>        -0.7435
     17 H2          0.9479   -3.6474   -0.0269 H         1 <0>         0.2143
     18 H3          3.3110    2.8127   -1.1263 H         1 <0>         0.1256
     19 H4          1.8792    3.2935   -2.0688 H         1 <0>         0.0804
     20 H5          3.4834    5.1666   -1.9242 H         1 <0>         0.1471
     21 H6          3.4430    5.0767   -0.1466 H         1 <0>         0.1445
     22 H7         -0.0636    6.1083    0.0877 H         1 <0>         0.1487
     23 H8          1.3679    5.6276    1.0304 H         1 <0>         0.1429
     24 H9         -0.1955    3.8443   -0.8920 H         1 <0>         0.0852
     25 H10        -0.2359    3.7544    0.8856 H         1 <0>         0.1395
     26 H11        -2.5326   -0.1355    0.8420 H         1 <0>         0.3708
     27 H12        -3.0034   -1.3675    0.0234 H         1 <0>         0.3792
     28 N7          1.6762    5.7903   -1.0492 N.4       1 <0>        -0.5204
     29 H13         1.1463    5.6493   -1.9173 H         1 <0>         0.4339
     30 H14         1.9730    6.7711   -0.9849 H         1 <0>         0.4431
@<TRIPOS>BOND
     1    1    6 ar
     2    1    2 ar
     3    1   17 1
     4    2    3 ar
     5    3    4 ar
     6    3   16 1
     7    4   10 1
     8    4    5 ar
     9    5    6 ar
    10    5    7 1
    11    7    8 1
    12    7    9 1
    13    9   10 2
    14    9   11 1
    15   11   15 1
    16   11   12 1
    17   12   13 1
    18   12   18 1
    19   12   19 1
    20   13   20 1
    21   13   21 1
    22   13   28 1
    23   14   15 1
    24   14   22 1
    25   14   23 1
    26   14   28 1
    27   15   24 1
    28   15   25 1
    29   16   26 1
    30   16   27 1
    31   28   29 1
    32   28   30 1
@<TRIPOS>MOLECULE
ZINC36681403
   30    31     0     0     0
SMALL
USER_CHARGES

@<TRIPOS>ATOM
      1 C1          0.0900    1.5205    0.0559 C.3       1 <0>        -0.1446
      2 C2          0.0946    0.0143    0.0062 C.2       1 <0>        -0.1419
      3 C3          0.0781   -0.7819    1.2855 C.3       1 <0>        -0.0712
      4 S1          1.7557   -0.8594    1.9712 S.3       1 <0>         0.0480
      5 C4          1.5711   -1.8099    3.4433 C.2       1 <0>         0.2027
      6 N1          0.4540   -2.3320    3.9015 N.2       1 <0>        -0.3338
      7 N2          0.6699   -2.9646    4.9981 N.2       1 <0>        -0.0252
      8 N3          1.9170   -2.8957    5.3171 N.2       1 <0>        -0.0640
      9 N4          2.5532   -2.1454    4.3127 N.pl3     1 <0>        -0.3251
     10 C5          3.9740   -1.7985    4.2268 C.3       1 <0>         0.0457
     11 C6          4.8545   -2.1221    5.4355 C.3       1 <0>        -0.1501
     12 C7          4.9792   -2.9498    4.1547 C.3       1 <0>        -0.1606
     13 C8          0.1130   -0.6074   -1.1579 C.2       1 <0>         0.2243
     14 N5          0.0035    0.1252   -2.3435 N.4       1 <0>        -0.5705
     15 N6          0.2414   -1.9898   -1.2050 N.pl3     1 <0>        -0.8606
     16 H1          0.0046    1.8496    1.0916 H         1 <0>         0.1039
     17 H2          1.0180    1.9010   -0.3708 H         1 <0>         0.0891
     18 H3         -0.7560    1.9004   -0.5169 H         1 <0>         0.0816
     19 H4         -0.5862   -0.3015    2.0039 H         1 <0>         0.1288
     20 H5         -0.2777   -1.7916    1.0805 H         1 <0>         0.1079
     21 H6          4.2038   -0.8938    3.6641 H         1 <0>         0.1580
     22 H7          5.6639   -1.4300    5.6682 H         1 <0>         0.1234
     23 H8          4.3768   -2.5930    6.2946 H         1 <0>         0.1183
     24 H9          4.5834   -3.9652    4.1712 H         1 <0>         0.1081
     25 H10         5.8705   -2.8022    3.5449 H         1 <0>         0.1227
     26 H11        -0.1691    1.0950   -2.1249 H         1 <0>         0.4524
     27 H12         0.1803   -2.5107   -0.3890 H         1 <0>         0.4320
     28 H13         0.3920   -2.4343   -2.0539 H         1 <0>         0.4117
     29 H14         0.8617    0.0462   -2.8682 H         1 <0>         0.4440
     30 H15        -0.7613   -0.2369   -2.8932 H         1 <0>         0.4451
@<TRIPOS>BOND
     1    1    2 1
     2    1   16 1
     3    1   17 1
     4    1   18 1
     5    2    3 1
     6    2   13 2
     7    3    4 1
     8    3   19 1
     9    3   20 1
    10    4    5 1
    11    5    9 1
    12    5    6 2
    13    6    7 1
    14    7    8 2
    15    8    9 1
    16    9   10 1
    17   10   12 1
    18   10   11 1
    19   10   21 1
    20   11   12 1
    21   11   22 1
    22   11   23 1
    23   12   24 1
    24   12   25 1
    25   13   14 1
    26   13   15 1
    27   14   26 1
    28   14   29 1
    29   14   30 1
    30   15   27 1
    31   15   28 1
@<TRIPOS>MOLECULE
ZINC45431897
   32    33     0     0     0
SMALL
USER_CHARGES

@<TRIPOS>ATOM
      1 C1         -0.0167    1.3781    0.0096 C.ar      1 <0>        -0.0978
      2 C2          1.1709    2.0855    0.0021 C.ar      1 <0>        -0.1176
      3 C3          2.3773    1.4107   -0.0130 C.ar      1 <0>        -0.0792
      4 C4          2.3960    0.0285   -0.0201 C.ar      1 <0>        -0.0944
      5 C5          1.2084   -0.6789   -0.0117 C.ar      1 <0>        -0.1037
      6 C6          0.0021   -0.0041    0.0020 C.ar      1 <0>        -0.1156
      7 C7          3.7112   -0.7071   -0.0376 C.3       1 <0>         0.1448
      8 C8          3.5388   -2.0427   -0.7637 C.3       1 <0>         0.0592
      9 N1          4.8173   -2.7579   -0.7807 N.pl3     1 <0>        -0.4147
     10 C9          5.7876   -2.6643   -1.7416 C.2       1 <0>         0.0104
     11 C10         6.7881   -3.4838   -1.3662 C.2       1 <0>         0.0151
     12 N2          6.4383   -4.0620   -0.2076 N.pl3     1 <0>        -0.4718
     13 C11         5.2611   -3.6281    0.1517 C.cat     1 <0>         0.2928
     14 C12         4.1644   -0.9594    1.3773 C.2       1 <0>         0.5191
     15 O1          3.3503   -1.0118    2.2747 O.2       1 <0>        -0.4920
     16 N3          5.4746   -1.1268    1.6455 N.am      1 <0>        -0.8548
     17 N4          4.7168    0.1041   -0.7366 N.3       1 <0>        -0.8203
     18 H1         -0.9591    1.9053    0.0259 H         1 <0>         0.1301
     19 H2          1.1563    3.1654    0.0076 H         1 <0>         0.1307
     20 H3          3.3051    1.9634   -0.0196 H         1 <0>         0.1361
     21 H4          1.2231   -1.7588   -0.0176 H         1 <0>         0.1183
     22 H5         -0.9258   -0.5567    0.0082 H         1 <0>         0.1302
     23 H6          2.7927   -2.6447   -0.2450 H         1 <0>         0.1378
     24 H7          3.2110   -1.8603   -1.7871 H         1 <0>         0.1445
     25 H8          5.7566   -2.0514   -2.6303 H         1 <0>         0.2255
     26 H9          7.7105   -3.6469   -1.9037 H         1 <0>         0.2288
     27 H10         4.7289   -3.9188    1.0454 H         1 <0>         0.2576
     28 H11         6.1258   -1.0849    0.9278 H         1 <0>         0.3928
     29 H12         5.7664   -1.2892    2.5562 H         1 <0>         0.4129
     30 H13         5.6232   -0.3382   -0.7059 H         1 <0>         0.3397
     31 H14         4.4358    0.2871   -1.6882 H         1 <0>         0.3675
     32 H15         6.9769   -4.6993    0.2871 H         1 <0>         0.4680
@<TRIPOS>BOND
     1    1    6 ar
     2    1    2 ar
     3    1   18 1
     4    2    3 ar
     5    2   19 1
     6    3    4 ar
     7    3   20 1
     8    4    5 ar
     9    4    7 1
    10    5    6 ar
    11    5   21 1
    12    6   22 1
    13    7    8 1
    14    7   14 1
    15    7   17 1
    16    8    9 1
    17    8   23 1
    18    8   24 1
    19    9   13 1
    20    9   10 1
    21   10   11 2
    22   10   25 1
    23   11   12 1
    24   11   26 1
    25   12   13 2
    26   12   32 1
    27   13   27 1
    28   14   15 2
    29   14   16 am
    30   16   28 1
    31   16   29 1
    32   17   30 1
    33   17   31 1
@<TRIPOS>MOLECULE
ZINC55087286
   38    38     0     0     0
SMALL
USER_CHARGES

@<TRIPOS>ATOM
      1 C1         -0.0184    1.5028    0.0103 C.3       1 <0>        -0.1761
      2 C2          0.0021   -0.0041    0.0020 C.2       1 <0>         0.5147
      3 O1          1.0605   -0.5961   -0.0113 O.2       1 <0>        -0.5372
      4 N1         -1.1558   -0.6938    0.0094 N.am      1 <0>        -0.7352
      5 C3         -1.1360   -2.1586    0.0013 C.3       1 <0>         0.1050
      6 C4         -2.5713   -2.6882    0.0122 C.3       1 <0>         0.1030
      7 N2         -2.5515   -4.1530    0.0041 N.am      1 <0>        -0.7039
      8 C5         -3.7094   -4.8427    0.0115 C.2       1 <0>         0.5189
      9 O2         -4.7678   -4.2507    0.0248 O.2       1 <0>        -0.5515
     10 C6         -3.6889   -6.3496    0.0032 C.3       1 <0>        -0.1324
     11 H1         -3.1618   -6.7106    0.8862 H         1 <0>         0.1254
     12 C7         -2.9728   -6.8430   -1.2556 C.3       1 <0>        -0.1118
     13 C8         -3.7128   -6.3362   -2.4951 C.3       1 <0>        -0.1347
     14 C9         -5.1482   -6.8657   -2.4843 C.3       1 <0>        -0.1167
     15 C10        -5.8643   -6.3723   -1.2255 C.3       1 <0>        -0.1579
     16 C11        -5.1243   -6.8792    0.0140 C.3       1 <0>         0.0518
     17 H2         -5.1095   -7.9690    0.0080 H         1 <0>         0.1496
     18 N3         -5.8119   -6.4054    1.2227 N.4       1 <0>        -0.6387
     19 H3          1.0042    1.8801    0.0026 H         1 <0>         0.0979
     20 H4         -0.5455    1.8639   -0.8728 H         1 <0>         0.0920
     21 H5         -0.5286    1.8543    0.9071 H         1 <0>         0.0917
     22 H6         -2.0023   -0.2203    0.0200 H         1 <0>         0.4054
     23 H7         -0.6258   -2.5101   -0.8955 H         1 <0>         0.0771
     24 H8         -0.6088   -2.5197    0.8844 H         1 <0>         0.0764
     25 H9         -3.0815   -2.3367    0.9090 H         1 <0>         0.0841
     26 H10        -3.0985   -2.3271   -0.8709 H         1 <0>         0.0851
     27 H11        -1.7050   -4.6265   -0.0065 H         1 <0>         0.4128
     28 H12        -1.9502   -6.4657   -1.2634 H         1 <0>         0.0890
     29 H13        -2.9580   -7.9329   -1.2616 H         1 <0>         0.0940
     30 H14        -3.7276   -5.2463   -2.4892 H         1 <0>         0.0678
     31 H15        -3.2026   -6.6877   -3.3919 H         1 <0>         0.0860
     32 H16        -5.6754   -6.5047   -3.3673 H         1 <0>         0.0861
     33 H17        -5.1334   -7.9556   -2.4903 H         1 <0>         0.0758
     34 H18        -5.8791   -5.2824   -1.2195 H         1 <0>         0.1140
     35 H19        -6.8869   -6.7496   -1.2177 H         1 <0>         0.0886
     36 H20        -5.8256   -5.3965    1.2282 H         1 <0>         0.4380
     37 H21        -6.7585   -6.7547    1.2298 H         1 <0>         0.4360
     38 H22        -5.3239   -6.7397    2.0401 H         1 <0>         0.4298
@<TRIPOS>BOND
     1    1    2 1
     2    1   19 1
     3    1   20 1
     4    1   21 1
     5    2    3 2
     6    2    4 am
     7    4    5 1
     8    4   22 1
     9    5    6 1
    10    5   23 1
    11    5   24 1
    12    6    7 1
    13    6   25 1
    14    6   26 1
    15    7    8 am
    16    7   27 1
    17    8    9 2
    18    8   10 1
    19   10   11 1
    20   10   16 1
    21   10   12 1
    22   12   13 1
    23   12   28 1
    24   12   29 1
    25   13   14 1
    26   13   30 1
    27   13   31 1
    28   14   15 1
    29   14   32 1
    30   14   33 1
    31   15   16 1
    32   15   34 1
    33   15   35 1
    34   16   17 1
    35   16   18 1
    36   18   36 1
    37   18   37 1
    38   18   38 1
@<TRIPOS>MOLECULE
ZINC62052351
   32    33     0     0     0
SMALL
USER_CHARGES

@<TRIPOS>ATOM
      1 C1         -0.0184    1.5028    0.0103 C.3       1 <0>        -0.1156
      2 C2          0.0021   -0.0041    0.0020 C.ar      1 <0>         0.1537
      3 C3          0.0055   -0.6806   -1.2034 C.ar      1 <0>        -0.1731
      4 C4          0.0244   -2.0667   -1.1999 C.ar      1 <0>        -0.0457
      5 C5          0.0391   -2.7236    0.0213 C.ar      1 <0>        -0.1907
      6 C6          0.0345   -1.9800    1.1859 C.ar      1 <0>         0.1328
      7 N1          0.0219   -0.6618    1.1446 N.ar      1 <0>        -0.4835
      8 C7          0.0594   -4.2294    0.0775 C.3       1 <0>         0.1702
      9 N2          1.4470   -4.6990    0.0890 N.pl3     1 <0>        -0.7089
     10 C8          1.7216   -6.0727    0.1391 C.2       1 <0>         0.2775
     11 C9          2.9481   -6.6539    0.1610 C.2       1 <0>         0.2378
     12 N3          2.7769   -7.9851    0.2102 N.pl3     1 <0>        -0.4694
     13 C10         1.5003   -8.2591    0.2200 C.cat     1 <0>         0.2987
     14 N4          0.8018   -7.0921    0.1818 N.pl3     1 <0>        -0.5147
     15 H1         -0.1636   -6.9978    0.1828 H         1 <0>         0.4601
     16 C11         0.8995   -9.6403    0.2702 C.3       1 <0>        -0.1042
     17 N5          4.1864   -5.9777    0.1358 N.pl3     1 <0>        -0.8460
     18 H2          1.0042    1.8801    0.0026 H         1 <0>         0.0861
     19 H3         -0.5455    1.8639   -0.8728 H         1 <0>         0.0817
     20 H4         -0.5286    1.8543    0.9071 H         1 <0>         0.0838
     21 H5         -0.0066   -0.1362   -2.1360 H         1 <0>         0.1432
     22 H6          0.0272   -2.6219   -2.1263 H         1 <0>         0.1377
     23 H7          0.0459   -2.4840    2.1410 H         1 <0>         0.1570
     24 H8         -0.4456   -4.5660    0.9830 H         1 <0>         0.0792
     25 H9         -0.4535   -4.6325   -0.7957 H         1 <0>         0.0775
     26 H10         2.1757   -4.0594    0.0618 H         1 <0>         0.4249
     27 H11         0.7542   -9.9357    1.3093 H         1 <0>         0.1184
     28 H12        -0.0613   -9.6375   -0.2446 H         1 <0>         0.1150
     29 H13         1.5711  -10.3466   -0.2178 H         1 <0>         0.1151
     30 H14         4.2092   -5.0087    0.0997 H         1 <0>         0.4243
     31 H15         5.0148   -6.4820    0.1547 H         1 <0>         0.4165
     32 H16         3.4909   -8.6413    0.2342 H         1 <0>         0.4605
@<TRIPOS>BOND
     1    1    2 1
     2    1   18 1
     3    1   19 1
     4    1   20 1
     5    2    7 ar
     6    2    3 ar
     7    3    4 ar
     8    3   21 1
     9    4    5 ar
    10    4   22 1
    11    5    6 ar
    12    5    8 1
    13    6    7 ar
    14    6   23 1
    15    8    9 1
    16    8   24 1
    17    8   25 1
    18    9   10 1
    19    9   26 1
    20   10   14 1
    21   10   11 2
    22   11   12 1
    23   11   17 1
    24   12   13 2
    25   12   32 1
    26   13   14 1
    27   13   16 1
    28   14   15 1
    29   16   27 1
    30   16   28 1
    31   16   29 1
    32   17   30 1
    33   17   31 1
@<TRIPOS>MOLECULE
ZINC04073870
   65    68     0     0     0
SMALL
USER_CHARGES
[2-(3,17-dihydroxy-10,13,16-trimethyl-1,2,3,4,7,8,9,11,12,14,15,16-dodecahydrocyclopenta[a]phenanthren-17-yl)-2-oxo-ethyl] acetate
@<TRIPOS>ATOM
      1 C1         -2.8081   -1.0350    2.7743 C.3       1 <0>        -0.1537
      2 C2         -1.7788   -0.5646    1.7456 C.3       1 <0>        -0.1103
      3 H1         -1.7742   -1.2380    0.8908 H         1 <0>         0.0801
      4 C3         -0.3666   -0.5091    2.3919 C.3       1 <0>        -0.1086
      5 C4         -0.1081    0.9951    2.5516 C.3       1 <0>        -0.0761
      6 H2         -0.6869    1.3539    3.4258 H         1 <0>         0.0844
      7 C5          1.3405    1.3994    2.7513 C.3       1 <0>        -0.0578
      8 H3          2.0094    0.6203    2.3908 H         1 <0>         0.0764
      9 C6          1.5219    1.5945    4.2659 C.3       1 <0>        -0.0840
     10 C7          2.8324    2.2387    4.5792 C.2       1 <0>        -0.1530
     11 C8          3.4335    3.0459    3.7575 C.2       1 <0>        -0.1042
     12 C9          4.7205    3.7160    4.2123 C.3       1 <0>        -0.1166
     13 C10         4.5473    5.2294    4.0476 C.3       1 <0>         0.1095
     14 H4          3.7617    5.5772    4.7194 H         1 <0>         0.0542
     15 C11         4.1566    5.5526    2.6054 C.3       1 <0>        -0.1153
     16 C12         2.8217    4.9002    2.2494 C.3       1 <0>        -0.1008
     17 C13         2.9076    3.3810    2.3948 C.3       1 <0>        -0.0092
     18 C14         1.5994    2.7168    2.0355 C.3       1 <0>        -0.0754
     19 H5          1.7234    2.4879    0.9657 H         1 <0>         0.0728
     20 C15         0.3878    3.6308    2.1461 C.3       1 <0>        -0.1089
     21 C16        -0.7707    3.0761    1.2994 C.3       1 <0>        -0.1076
     22 C17        -0.7243    1.5702    1.2646 C.3       1 <0>        -0.0248
     23 C18        -2.1075    0.8807    1.2910 C.3       1 <0>         0.0984
     24 C19        -2.7159    0.8869   -0.0814 C.2       1 <0>         0.3353
     25 O1         -2.0101    0.7780   -1.0552 O.2       1 <0>        -0.4019
     26 C20        -4.2073    1.0292   -0.2438 C.3       1 <0>         0.0196
     27 O2         -4.5447    1.0068   -1.6559 O.3       1 <0>        -0.3399
     28 C21        -5.8435    1.1237   -1.9740 C.2       1 <0>         0.4597
     29 O3         -6.6711    1.2408   -1.1014 O.2       1 <0>        -0.5113
     30 C22        -6.2696    1.1088   -3.4194 C.3       1 <0>        -0.1468
     31 O4         -2.9566    1.5218    2.2343 O.3       1 <0>        -0.5297
     32 C23        -0.0115    1.0687    0.0074 C.3       1 <0>        -0.1391
     33 C24         3.9391    2.8767    1.3702 C.3       1 <0>        -0.1474
     34 O5          5.7745    5.8872    4.3705 O.3       1 <0>        -0.5690
     35 H6         -2.8074   -0.3550    3.6262 H         1 <0>         0.0730
     36 H7         -3.7983   -1.0458    2.3189 H         1 <0>         0.0522
     37 H8         -2.5522   -2.0396    3.1112 H         1 <0>         0.0664
     38 H9          0.3774   -0.9778    1.7552 H         1 <0>         0.0726
     39 H10        -0.3788   -0.9971    3.3695 H         1 <0>         0.0715
     40 H11         0.7083    2.2182    4.6418 H         1 <0>         0.0745
     41 H12         1.4691    0.6187    4.7530 H         1 <0>         0.0662
     42 H13         3.3014    2.0333    5.5311 H         1 <0>         0.1033
     43 H14         4.8965    3.4831    5.2646 H         1 <0>         0.0679
     44 H15         5.5598    3.3709    3.6129 H         1 <0>         0.0800
     45 H16         4.9442    5.2287    1.9271 H         1 <0>         0.0732
     46 H17         4.0524    6.6406    2.5063 H         1 <0>         0.0667
     47 H18         2.5618    5.1534    1.2184 H         1 <0>         0.0724
     48 H19         2.0460    5.2864    2.9144 H         1 <0>         0.0681
     49 H20         0.0778    3.7060    3.1907 H         1 <0>         0.0623
     50 H21         0.6441    4.6298    1.7830 H         1 <0>         0.0692
     51 H22        -0.6975    3.4746    0.2806 H         1 <0>         0.0599
     52 H23        -1.7213    3.4163    1.7265 H         1 <0>         0.0758
     53 H24        -4.6669    0.2723    0.2208 H         1 <0>         0.0903
     54 H25        -4.5318    1.9739    0.1924 H         1 <0>         0.1086
     55 H26        -5.9703    0.1658   -3.8767 H         1 <0>         0.1027
     56 H27        -7.3528    1.2144   -3.4800 H         1 <0>         0.1048
     57 H28        -5.7938    1.9356   -3.9469 H         1 <0>         0.1031
     58 H29        -3.8399    1.1331    2.2962 H         1 <0>         0.3773
     59 H30        -0.2747    0.0256   -0.1678 H         1 <0>         0.0620
     60 H31         1.0667    1.1535    0.1428 H         1 <0>         0.0567
     61 H32        -0.3186    1.6696   -0.8486 H         1 <0>         0.0718
     62 H33         4.0620    1.7991    1.4786 H         1 <0>         0.0544
     63 H34         3.5907    3.1031    0.3624 H         1 <0>         0.0570
     64 H35         4.8950    3.3708    1.5437 H         1 <0>         0.0589
     65 H36         6.0820    5.7253    5.2729 H         1 <0>         0.3782
@<TRIPOS>BOND
     1    1    2 1
     2    1   35 1
     3    1   36 1
     4    1   37 1
     5    2    3 1
     6    2   23 1
     7    2    4 1
     8    4    5 1
     9    4   38 1
    10    4   39 1
    11    5    6 1
    12    5   22 1
    13    5    7 1
    14    7    8 1
    15    7   18 1
    16    7    9 1
    17    9   10 1
    18    9   40 1
    19    9   41 1
    20   10   11 2
    21   10   42 1
    22   11   17 1
    23   11   12 1
    24   12   13 1
    25   12   43 1
    26   12   44 1
    27   13   14 1
    28   13   15 1
    29   13   34 1
    30   15   16 1
    31   15   45 1
    32   15   46 1
    33   16   17 1
    34   16   47 1
    35   16   48 1
    36   17   18 1
    37   17   33 1
    38   18   19 1
    39   18   20 1
    40   20   21 1
    41   20   49 1
    42   20   50 1
    43   21   22 1
    44   21   51 1
    45   21   52 1
    46   22   23 1
    47   22   32 1
    48   23   24 1
    49   23   31 1
    50   24   25 2
    51   24   26 1
    52   26   27 1
    53   26   53 1
    54   26   54 1
    55   27   28 1
    56   28   29 2
    57   28   30 1
    58   30   55 1
    59   30   56 1
    60   30   57 1
    61   31   58 1
    62   32   59 1
    63   32   60 1
    64   32   61 1
    65   33   62 1
    66   33   63 1
    67   33   64 1
    68   34   65 1
@<TRIPOS>MOLECULE
ZINC12321852
   46    49     0     0     0
SMALL
USER_CHARGES
(2R)-2-(4-chloro-1H-indol-3-yl)-2-[4-(4-chlorophenyl)piperazin-1-yl]acetic acid
@<TRIPOS>ATOM
      1 C1         -1.0876   11.6344   -3.2035 C.ar      1 <0>        -0.0763
      2 C2         -1.0609   10.5187   -4.0111 C.ar      1 <0>        -0.1332
      3 C3         -0.3875    9.3754   -3.5936 C.ar      1 <0>         0.1141
      4 C4          0.2610    9.3722   -2.3454 C.ar      1 <0>        -0.0759
      5 C5          0.2248   10.5115   -1.5379 C.ar      1 <0>         0.0327
      6 C6         -0.4478   11.6328   -1.9718 C.ar      1 <0>        -0.1394
      7 Cl1         1.0225   10.5143    0.0040 Cl        1 <0>        -0.0367
      8 C7          0.8641    8.0445   -2.2056 C.2       1 <0>        -0.1614
      9 C8          0.5664    7.3589   -3.3205 C.2       1 <0>         0.0386
     10 N1         -0.1856    8.1362   -4.1592 N.pl3     1 <0>        -0.5814
     11 H1         -0.5228    7.8571   -5.0248 H         1 <0>         0.4235
     12 C9          1.6711    7.5453   -1.0349 C.3       1 <0>         0.0605
     13 H2          1.2219    7.8987   -0.1068 H         1 <0>         0.1412
     14 C10         3.0821    8.0643   -1.1396 C.2       1 <0>         0.4642
     15 O1          4.0067    7.2900   -1.2131 O.co2     1 <0>        -0.6240
     16 C11         2.4677    5.5528    0.0877 C.3       1 <0>        -0.0084
     17 C12         2.5273    4.0260   -0.0008 C.3       1 <0>         0.0263
     18 N2          1.1615    3.4837    0.0092 N.pl3     1 <0>        -0.4885
     19 C13         0.3817    4.0073   -1.1210 C.3       1 <0>         0.0320
     20 C14         0.3221    5.5341   -1.0324 C.3       1 <0>        -0.0122
     21 C15         1.1774    2.0864    0.0020 C.ar      1 <0>         0.1035
     22 C16        -0.0167    1.3769    0.0096 C.ar      1 <0>        -0.1214
     23 C17         0.0021   -0.0041    0.0020 C.ar      1 <0>        -0.0845
     24 C18         1.2090   -0.6809   -0.0127 C.ar      1 <0>        -0.0520
     25 C19         2.4001    0.0234   -0.0198 C.ar      1 <0>        -0.0813
     26 C20         2.3874    1.4044   -0.0123 C.ar      1 <0>        -0.1525
     27 Cl2         1.2288   -2.4168   -0.0216 Cl        1 <0>        -0.0638
     28 H3         -1.6121   12.5195   -3.5321 H         1 <0>         0.1379
     29 H4         -1.5621   10.5318   -4.9677 H         1 <0>         0.1285
     30 H5         -0.4777   12.5153   -1.3500 H         1 <0>         0.1371
     31 H6          0.8726    6.3435   -3.5244 H         1 <0>         0.1650
     32 H7          1.9919    5.8444    1.0240 H         1 <0>         0.1265
     33 H8          3.4786    5.9589    0.0513 H         1 <0>         0.1731
     34 H9          3.0806    3.6336    0.8523 H         1 <0>         0.1253
     35 H10         3.0275    3.7346   -0.9244 H         1 <0>         0.0716
     36 H11         0.8575    3.7156   -2.0573 H         1 <0>         0.0665
     37 H12        -0.6292    3.6012   -1.0845 H         1 <0>         0.1223
     38 H13        -0.1781    5.8255   -0.1089 H         1 <0>         0.1362
     39 H14        -0.2313    5.9265   -1.8856 H         1 <0>         0.1350
     40 H15        -0.9589    1.9046    0.0169 H         1 <0>         0.1364
     41 H16        -0.9261   -0.5562    0.0079 H         1 <0>         0.1388
     42 H17         3.3406   -0.5074   -0.0309 H         1 <0>         0.1382
     43 H18         3.3173    1.9536   -0.0171 H         1 <0>         0.1396
     44 O2          3.3116    9.3868   -1.1514 O.co2     1 <0>        -0.6665
     45 N3          1.7001    6.0674   -1.0660 N.4       1 <0>        -0.3743
     46 H19         2.1556    5.7608   -1.9336 H         1 <0>         0.4191
@<TRIPOS>BOND
     1    1    6 ar
     2    1    2 ar
     3    1   28 1
     4    2    3 ar
     5    2   29 1
     6    3   10 1
     7    3    4 ar
     8    4    5 ar
     9    4    8 1
    10    5    6 ar
    11    5    7 1
    12    6   30 1
    13    8    9 2
    14    8   12 1
    15    9   10 1
    16    9   31 1
    17   10   11 1
    18   12   13 1
    19   12   14 1
    20   12   45 1
    21   14   15 2
    22   14   44 1
    23   16   17 1
    24   16   32 1
    25   16   33 1
    26   16   45 1
    27   17   18 1
    28   17   34 1
    29   17   35 1
    30   18   19 1
    31   18   21 1
    32   19   20 1
    33   19   36 1
    34   19   37 1
    35   20   38 1
    36   20   39 1
    37   20   45 1
    38   21   26 ar
    39   21   22 ar
    40   22   23 ar
    41   22   40 1
    42   23   24 ar
    43   23   41 1
    44   24   25 ar
    45   24   27 1
    46   25   26 ar
    47   25   42 1
    48   26   43 1
    49   45   46 1
@<TRIPOS>MOLECULE
ZINC32788635
   36    37     0     0     0
SMALL
USER_CHARGES
(E)-3-(3-bromo-4-hydroxy-phenyl)-N-(3-chloro-4-methoxy-phenyl)-2-cyano-prop-2-enamide
@<TRIPOS>ATOM
      1 C1          8.3100   12.3887   -0.7223 C.3       1 <0>         0.0214
      2 O1          8.2776   11.0298   -1.1632 O.3       1 <0>        -0.3042
      3 C2          7.1248   10.3397   -0.9525 C.ar      1 <0>         0.1216
      4 C3          6.0490   10.9593   -0.3340 C.ar      1 <0>        -0.1755
      5 C4          4.8763   10.2610   -0.1245 C.ar      1 <0>        -0.1022
      6 C5          4.7774    8.9342   -0.5228 C.ar      1 <0>         0.1275
      7 C6          5.8542    8.3137   -1.1420 C.ar      1 <0>        -0.0830
      8 C7          7.0254    9.0153   -1.3563 C.ar      1 <0>        -0.0481
      9 Cl1         8.3724    8.2402   -2.1299 Cl        1 <0>        -0.0482
     10 N1          3.5903    8.2241   -0.3051 N.am      1 <0>        -0.6748
     11 C8          3.6222    6.8837   -0.1686 C.2       1 <0>         0.5785
     12 O2          4.6895    6.3005   -0.1388 O.2       1 <0>        -0.5107
     13 C9          2.3665    6.1258   -0.0557 C.2       1 <0>        -0.1443
     14 C10         2.3991    4.7554    0.0839 C.2       1 <0>         0.0900
     15 C11         1.1573    3.9825    0.0136 C.ar      1 <0>        -0.1530
     16 C12         1.0523    2.7562    0.6859 C.ar      1 <0>        -0.0152
     17 C13        -0.1068    2.0374    0.6183 C.ar      1 <0>        -0.1607
     18 C14        -1.1887    2.5186   -0.1114 C.ar      1 <0>         0.2231
     19 C15        -1.0950    3.7317   -0.7874 C.ar      1 <0>        -0.2006
     20 C16         0.0684    4.4654   -0.7266 C.ar      1 <0>        -0.0181
     21 Br1        -2.5683    4.3759   -1.7826 Br        1 <0>        -0.0273
     22 O3         -2.3383    1.8000   -0.1688 O.3       1 <0>        -0.4914
     23 C17         1.1102    6.8122   -0.0908 C.1       1 <0>         0.2399
     24 N2          0.1137    7.3568   -0.1186 N.1       1 <0>        -0.3972
     25 H1          9.2929   12.8255   -0.9525 H         1 <0>         0.1055
     26 H2          8.1373   12.4261    0.3634 H         1 <0>         0.0585
     27 H3          7.5247   12.9604   -1.2384 H         1 <0>         0.0584
     28 H4          6.1271   11.9897   -0.0201 H         1 <0>         0.1425
     29 H5          4.0374   10.7453    0.3532 H         1 <0>         0.1356
     30 H6          5.7764    7.2834   -1.4563 H         1 <0>         0.1613
     31 H7          2.6317    8.7603   -0.2455 H         1 <0>         0.4361
     32 H8          3.3579    4.2419    0.2482 H         1 <0>         0.1753
     33 H9          1.8881    2.3805    1.2575 H         1 <0>         0.1508
     34 H10        -0.1851    1.0933    1.1369 H         1 <0>         0.1494
     35 H11         0.1423    5.4088   -1.2471 H         1 <0>         0.1409
     36 H12        -3.1953    2.1785   -0.7452 H         1 <0>         0.4381
@<TRIPOS>BOND
     1    1    2 1
     2    1   25 1
     3    1   26 1
     4    1   27 1
     5    2    3 1
     6    3    8 ar
     7    3    4 ar
     8    4    5 ar
     9    4   28 1
    10    5    6 ar
    11    5   29 1
    12    6    7 ar
    13    6   10 1
    14    7    8 ar
    15    7   30 1
    16    8    9 1
    17   10   11 am
    18   10   31 1
    19   11   12 2
    20   11   13 1
    21   13   14 2
    22   13   23 1
    23   14   15 1
    24   14   32 1
    25   15   20 ar
    26   15   16 ar
    27   16   17 ar
    28   16   33 1
    29   17   18 ar
    30   17   34 1
    31   18   19 ar
    32   18   22 1
    33   19   20 ar
    34   19   21 1
    35   20   35 1
    36   22   36 1
    37   23   24 3
@<TRIPOS>MOLECULE
ZINC36646174
   45    48     0     0     0
SMALL
USER_CHARGES

@<TRIPOS>ATOM
      1 C1         -0.0184    1.5028    0.0103 C.3       1 <0>        -0.1250
      2 C2          0.0021   -0.0041    0.0020 C.ar      1 <0>        -0.0447
      3 C3          0.0056   -0.6858   -1.2025 C.ar      1 <0>        -0.1338
      4 C4          0.0238   -2.0645   -1.2184 C.ar      1 <0>        -0.0487
      5 C5          0.0392   -2.7739   -0.0132 C.ar      1 <0>        -0.1750
      6 C6          0.0359   -2.0776    1.1997 C.ar      1 <0>        -0.0655
      7 C7          0.0229   -0.6988    1.1989 C.ar      1 <0>        -0.1334
      8 C8          0.0582   -4.2454   -0.0213 C.2       1 <0>         0.4193
      9 O1          0.0605   -4.8459   -1.0747 O.2       1 <0>        -0.4339
     10 C9          0.0747   -5.0059    1.2796 C.3       1 <0>        -0.1623
     11 S1          0.0959   -6.7874    0.9383 S.3       1 <0>         0.0569
     12 C10         0.1137   -7.5275    2.5372 C.2       1 <0>         0.3357
     13 N1          0.1038   -6.7604    3.6087 N.2       1 <0>        -0.4897
     14 C11         0.1166   -7.2917    4.8254 C.2       1 <0>         0.1103
     15 C12         0.1410   -8.6809    5.0341 C.2       1 <0>        -0.2398
     16 C13         0.1536   -9.1173    6.4317 C.2       1 <0>        -0.0461
     17 C14         0.1402   -8.1531    7.3740 C.2       1 <0>        -0.1669
     18 S2          0.1103   -6.6277    6.4716 S.3       1 <0>         0.1484
     19 C15         0.1484   -8.3369    8.8611 C.3       1 <0>        -0.0368
     20 C16        -0.1989   -9.8001    9.1705 C.3       1 <0>        -0.1156
     21 C17         0.6510  -10.7067    8.2755 C.3       1 <0>        -0.1230
     22 C18         0.1817  -10.5918    6.8248 C.3       1 <0>        -0.0604
     23 C19         0.1509   -9.4888    3.8532 C.2       1 <0>         0.5606
     24 O2          0.1715  -10.7049    3.9364 O.2       1 <0>        -0.5011
     25 N2          0.1318   -8.8876    2.6493 N.am      1 <0>        -0.3468
     26 N3          0.1358   -9.6531    1.5179 N.3       1 <0>        -0.5880
     27 H1          1.0042    1.8801    0.0026 H         1 <0>         0.0786
     28 H2         -0.5455    1.8639   -0.8728 H         1 <0>         0.0723
     29 H3         -0.5286    1.8543    0.9071 H         1 <0>         0.0724
     30 H4         -0.0062   -0.1366   -2.1323 H         1 <0>         0.1324
     31 H5          0.0259   -2.5951   -2.1591 H         1 <0>         0.1369
     32 H6          0.0473   -2.6184    2.1344 H         1 <0>         0.1345
     33 H7          0.0248   -0.1596    2.1346 H         1 <0>         0.1324
     34 H8          0.9641   -4.7342    1.8480 H         1 <0>         0.1392
     35 H9         -0.8157   -4.7572    1.8571 H         1 <0>         0.1407
     36 H10         1.1378   -8.1035    9.2543 H         1 <0>         0.0866
     37 H11        -0.5925   -7.6796    9.3163 H         1 <0>         0.0849
     38 H12         0.0170  -10.0136   10.2174 H         1 <0>         0.0768
     39 H13        -1.2559   -9.9753    8.9698 H         1 <0>         0.0699
     40 H14         1.6962  -10.4050    8.3427 H         1 <0>         0.0661
     41 H15         0.5513  -11.7400    8.6077 H         1 <0>         0.0725
     42 H16        -0.8187  -11.0141    6.7306 H         1 <0>         0.0804
     43 H17         0.8705  -11.1303    6.1739 H         1 <0>         0.0860
     44 H18         0.1240   -9.0757    0.6906 H         1 <0>         0.3698
     45 H19         0.9253  -10.2814    1.5092 H         1 <0>         0.3730
@<TRIPOS>BOND
     1    1    2 1
     2    1   27 1
     3    1   28 1
     4    1   29 1
     5    2    7 ar
     6    2    3 ar
     7    3    4 ar
     8    3   30 1
     9    4    5 ar
    10    4   31 1
    11    5    6 ar
    12    5    8 1
    13    6    7 ar
    14    6   32 1
    15    7   33 1
    16    8    9 2
    17    8   10 1
    18   10   11 1
    19   10   34 1
    20   10   35 1
    21   11   12 1
    22   12   25 1
    23   12   13 2
    24   13   14 1
    25   14   18 1
    26   14   15 2
    27   15   16 1
    28   15   23 1
    29   16   22 1
    30   16   17 2
    31   17   18 1
    32   17   19 1
    33   19   20 1
    34   19   36 1
    35   19   37 1
    36   20   21 1
    37   20   38 1
    38   20   39 1
    39   21   22 1
    40   21   40 1
    41   21   41 1
    42   22   42 1
    43   22   43 1
    44   23   24 2
    45   23   25 am
    46   25   26 1
    47   26   44 1
    48   26   45 1
@<TRIPOS>MOLECULE
ZINC36360290
   44    47     0     0     0
SMALL
USER_CHARGES

@<TRIPOS>ATOM
      1 C1         -0.0184    1.5028    0.0103 C.3       1 <0>        -0.0963
      2 C2          0.0021   -0.0041    0.0020 C.2       1 <0>         0.0947
      3 C3          0.0079   -0.8061   -1.1199 C.2       1 <0>        -0.1866
      4 C4          0.0282   -2.1511   -0.6665 C.2       1 <0>        -0.0739
      5 C5          0.0338   -2.1135    0.6904 C.2       1 <0>         0.0657
      6 N1          0.0237   -0.7995    1.0896 N.pl3     1 <0>        -0.5263
      7 H1          0.0286   -0.4924    2.0097 H         1 <0>         0.4246
      8 C6          0.0539   -3.2894    1.5875 C.ar      1 <0>        -0.0210
      9 C7         -0.7819   -4.3777    1.3345 C.ar      1 <0>        -0.0879
     10 C8         -0.7589   -5.4716    2.1747 C.ar      1 <0>        -0.1030
     11 C9          0.0914   -5.4909    3.2674 C.ar      1 <0>        -0.0292
     12 C10         0.9226   -4.4136    3.5237 C.ar      1 <0>        -0.1049
     13 C11         0.9127   -3.3169    2.6870 C.ar      1 <0>        -0.0962
     14 Cl1         0.1149   -6.8709    4.3203 Cl        1 <0>        -0.0633
     15 C12         0.0403   -3.3871   -1.5285 C.3       1 <0>        -0.0195
     16 H2          0.0426   -4.2838   -0.9088 H         1 <0>         0.1323
     17 C13         1.2377   -3.3778   -2.4508 C.ar      1 <0>        -0.1307
     18 C14         2.5954   -3.3711   -2.2225 C.ar      1 <0>        -0.0512
     19 C15         3.4749   -3.3630   -3.2910 C.ar      1 <0>        -0.1355
     20 C16         2.9857   -3.3617   -4.5846 C.ar      1 <0>        -0.0789
     21 C17         1.6259   -3.3684   -4.8161 C.ar      1 <0>        -0.1355
     22 C18         0.7340   -3.3765   -3.7452 C.ar      1 <0>         0.1427
     23 N2         -0.6611   -3.3841   -3.7201 N.am      1 <0>        -0.6620
     24 C19        -1.1493   -3.3924   -2.4649 C.2       1 <0>         0.5385
     25 O1         -2.3188   -3.4022   -2.1439 O.2       1 <0>        -0.4844
     26 C20        -0.0050   -0.3538   -2.5202 C.2       1 <0>         0.5395
     27 O2          1.0421   -0.1528   -3.1036 O.2       1 <0>        -0.4838
     28 O3         -1.1781   -0.1623   -3.1558 O.3       1 <0>        -0.3456
     29 C21        -1.1158    0.2773   -4.5141 C.3       1 <0>         0.0325
     30 H3          1.0042    1.8801    0.0026 H         1 <0>         0.0853
     31 H4         -0.5455    1.8639   -0.8728 H         1 <0>         0.0844
     32 H5         -0.5286    1.8543    0.9071 H         1 <0>         0.0786
     33 H6         -1.4457   -4.3636    0.4827 H         1 <0>         0.1414
     34 H7         -1.4055   -6.3144    1.9800 H         1 <0>         0.1405
     35 H8          1.5832   -4.4339    4.3779 H         1 <0>         0.1385
     36 H9          1.5652   -2.4794    2.8849 H         1 <0>         0.1324
     37 H10         2.9736   -3.3725   -1.2109 H         1 <0>         0.1256
     38 H11         4.5404   -3.3575   -3.1151 H         1 <0>         0.1293
     39 H12         3.6722   -3.3551   -5.4183 H         1 <0>         0.1304
     40 H13         1.2516   -3.3669   -5.8292 H         1 <0>         0.1248
     41 H14        -1.2162   -3.3846   -4.5155 H         1 <0>         0.4134
     42 H15        -2.1266    0.3918   -4.9056 H         1 <0>         0.1020
     43 H16        -0.5968    1.2345   -4.5627 H         1 <0>         0.0614
     44 H17        -0.5766   -0.4591   -5.1099 H         1 <0>         0.0577
@<TRIPOS>BOND
     1    1    2 1
     2    1   30 1
     3    1   31 1
     4    1   32 1
     5    2    6 1
     6    2    3 2
     7    3    4 1
     8    3   26 1
     9    4    5 2
    10    4   15 1
    11    5    6 1
    12    5    8 1
    13    6    7 1
    14    8   13 ar
    15    8    9 ar
    16    9   10 ar
    17    9   33 1
    18   10   11 ar
    19   10   34 1
    20   11   12 ar
    21   11   14 1
    22   12   13 ar
    23   12   35 1
    24   13   36 1
    25   15   16 1
    26   15   24 1
    27   15   17 1
    28   17   22 ar
    29   17   18 ar
    30   18   19 ar
    31   18   37 1
    32   19   20 ar
    33   19   38 1
    34   20   21 ar
    35   20   39 1
    36   21   22 ar
    37   21   40 1
    38   22   23 1
    39   23   24 am
    40   23   41 1
    41   24   25 2
    42   26   27 2
    43   26   28 1
    44   28   29 1
    45   29   42 1
    46   29   43 1
    47   29   44 1
@<TRIPOS>MOLECULE
ZINC00804029
   45    48     0     0     0
SMALL
USER_CHARGES

@<TRIPOS>ATOM
      1 C1         -0.0167    1.3781    0.0096 C.ar      1 <0>        -0.1214
      2 C2          1.1709    2.0855    0.0021 C.ar      1 <0>        -0.1072
      3 C3          2.3773    1.4107   -0.0130 C.ar      1 <0>        -0.1094
      4 C4          2.3960    0.0285   -0.0201 C.ar      1 <0>        -0.0785
      5 C5          1.2084   -0.6789   -0.0117 C.ar      1 <0>        -0.1158
      6 C6          0.0021   -0.0041    0.0020 C.ar      1 <0>        -0.1196
      7 C7          3.7112   -0.7071   -0.0376 C.3       1 <0>        -0.0799
      8 C8          4.1714   -0.9633    1.3989 C.3       1 <0>         0.0859
      9 H1          3.3895   -1.4885    1.9475 H         1 <0>         0.0882
     10 C9          5.4308   -1.7916    1.3897 C.2       1 <0>        -0.2416
     11 C10         5.5995   -3.0896    1.0958 C.2       1 <0>         0.1374
     12 N1          6.9162   -3.3722    1.2277 N.pl3     1 <0>        -0.4528
     13 H2          7.3311   -4.2361    1.0776 H         1 <0>         0.4523
     14 N2          7.5774   -2.1973    1.6190 N.2       1 <0>        -0.2443
     15 C11         6.6923   -1.2483    1.7182 C.2       1 <0>         0.2714
     16 O1          6.8465    0.0571    2.0672 O.3       1 <0>        -0.2105
     17 C12         5.7321    0.7587    2.3543 C.2       1 <0>         0.4341
     18 C13         4.4758    0.3484    2.0774 C.2       1 <0>        -0.2637
     19 C14         3.3824    1.1971    2.4445 C.1       1 <0>         0.2679
     20 N3          2.5150    1.8704    2.7358 N.1       1 <0>        -0.4331
     21 N4          5.8847    1.9755    2.9709 N.pl3     1 <0>        -0.8328
     22 C15         4.5179   -4.0580    0.6916 C.3       1 <0>        -0.0592
     23 S1          4.3354   -4.0419   -1.1131 S.3       1 <0>        -0.0790
     24 C16         3.0518   -5.2089   -1.4221 C.ar      1 <0>        -0.0907
     25 C17         2.4469   -5.8756   -0.3634 C.ar      1 <0>        -0.1336
     26 C18         1.4414   -6.7894   -0.6093 C.ar      1 <0>        -0.0992
     27 C19         1.0362   -7.0416   -1.9074 C.ar      1 <0>        -0.1212
     28 C20         1.6362   -6.3803   -2.9635 C.ar      1 <0>        -0.0992
     29 C21         2.6381   -5.4606   -2.7247 C.ar      1 <0>        -0.0965
     30 H3         -0.9591    1.9053    0.0259 H         1 <0>         0.1170
     31 H4          1.1563    3.1654    0.0076 H         1 <0>         0.1156
     32 H5          3.3051    1.9634   -0.0196 H         1 <0>         0.1145
     33 H6          1.2231   -1.7588   -0.0176 H         1 <0>         0.1181
     34 H7         -0.9258   -0.5567    0.0082 H         1 <0>         0.1179
     35 H8          3.5884   -1.6586   -0.5549 H         1 <0>         0.0918
     36 H9          4.4573   -0.1052   -0.5563 H         1 <0>         0.0747
     37 H10         6.7723    2.3028    3.1850 H         1 <0>         0.4111
     38 H11         5.1048    2.5081    3.1926 H         1 <0>         0.4265
     39 H12         4.7874   -5.0616    1.0206 H         1 <0>         0.1095
     40 H13         3.5759   -3.7646    1.1548 H         1 <0>         0.1215
     41 H14         2.7630   -5.6794    0.6505 H         1 <0>         0.1225
     42 H15         0.9710   -7.3081    0.2129 H         1 <0>         0.1268
     43 H16         0.2495   -7.7569   -2.0968 H         1 <0>         0.1262
     44 H17         1.3175   -6.5800   -3.9759 H         1 <0>         0.1294
     45 H18         3.1027   -4.9408   -3.5496 H         1 <0>         0.1287
@<TRIPOS>BOND
     1    1    6 ar
     2    1    2 ar
     3    1   30 1
     4    2    3 ar
     5    2   31 1
     6    3    4 ar
     7    3   32 1
     8    4    5 ar
     9    4    7 1
    10    5    6 ar
    11    5   33 1
    12    6   34 1
    13    7    8 1
    14    7   35 1
    15    7   36 1
    16    8    9 1
    17    8   18 1
    18    8   10 1
    19   10   15 1
    20   10   11 2
    21   11   12 1
    22   11   22 1
    23   12   13 1
    24   12   14 1
    25   14   15 2
    26   15   16 1
    27   16   17 1
    28   17   18 2
    29   17   21 1
    30   18   19 1
    31   19   20 3
    32   21   37 1
    33   21   38 1
    34   22   23 1
    35   22   39 1
    36   22   40 1
    37   23   24 1
    38   24   29 ar
    39   24   25 ar
    40   25   26 ar
    41   25   41 1
    42   26   27 ar
    43   26   42 1
    44   27   28 ar
    45   27   43 1
    46   28   29 ar
    47   28   44 1
    48   29   45 1
@<TRIPOS>MOLECULE
ZINC06424651
   41    44     0     0     0
SMALL
USER_CHARGES
hydroxymethyl-(3-methoxyphenyl)-BLAHcarboxylic acid
@<TRIPOS>ATOM
      1 C1          3.5426    2.0066    0.3994 C.3       1 <0>         0.0299
      2 O1          2.3651    1.1972    0.3781 O.3       1 <0>        -0.3176
      3 C2          1.1733    1.8440    0.2886 C.ar      1 <0>         0.1203
      4 C3          1.1378    3.2296    0.2231 C.ar      1 <0>        -0.2147
      5 C4         -0.0748    3.8847    0.1327 C.ar      1 <0>        -0.0859
      6 C5         -1.2528    3.1609    0.1069 C.ar      1 <0>        -0.1425
      7 C6         -1.2199    1.7802    0.1671 C.ar      1 <0>        -0.0099
      8 C7         -0.0098    1.1203    0.2630 C.ar      1 <0>        -0.1184
      9 C8         -2.5053    0.9943    0.1335 C.3       1 <0>         0.0605
     10 H1         -2.2804   -0.0703    0.1982 H         1 <0>         0.1095
     11 C9         -3.2281    1.2729   -1.1582 C.ar      1 <0>        -0.1229
     12 C10        -2.7926    0.6729   -2.3265 C.ar      1 <0>        -0.0554
     13 C11        -3.4461    0.9186   -3.5220 C.ar      1 <0>         0.0038
     14 C12        -4.5464    1.7728   -3.5475 C.ar      1 <0>         0.0580
     15 C13        -4.9812    2.3709   -2.3779 C.ar      1 <0>        -0.1187
     16 C14        -4.3228    2.1221   -1.1793 C.ar      1 <0>         0.1320
     17 O2         -4.7636    2.7181   -0.0441 O.3       1 <0>        -0.2170
     18 C15        -4.4154    2.2102    1.1441 C.2       1 <0>         0.0945
     19 C16        -3.3655    1.3943    1.2996 C.2       1 <0>        -0.2222
     20 C17        -3.0586    0.8983    2.5892 C.2       1 <0>         0.4944
     21 O3         -3.6777    1.2973    3.5577 O.co2     1 <0>        -0.6397
     22 C18        -5.2376    2.5707    2.3544 C.3       1 <0>         0.1508
     23 O4         -6.3600    3.3576    1.9506 O.3       1 <0>        -0.5831
     24 O5         -5.0084    1.8505   -4.8298 O.3       1 <0>        -0.3074
     25 C19        -4.4364    0.7202   -5.5140 C.3       1 <0>         0.2140
     26 O6         -3.2198    0.4611   -4.7888 O.3       1 <0>        -0.3077
     27 H2          3.5076    2.6763    1.2587 H         1 <0>         0.0526
     28 H3          4.4220    1.3668    0.4730 H         1 <0>         0.0951
     29 H4          3.5963    2.5940   -0.5171 H         1 <0>         0.0509
     30 H5          2.0576    3.7953    0.2425 H         1 <0>         0.1218
     31 H6         -0.1029    4.9631    0.0817 H         1 <0>         0.1198
     32 H7         -2.1999    3.6750    0.0361 H         1 <0>         0.1154
     33 H8          0.0152    0.0418    0.3134 H         1 <0>         0.1331
     34 H9         -1.9394    0.0111   -2.3058 H         1 <0>         0.1418
     35 H10        -5.8342    3.0331   -2.3965 H         1 <0>         0.1461
     36 H11        -5.5882    1.6599    2.8398 H         1 <0>         0.0910
     37 H12        -4.6256    3.1419    3.0524 H         1 <0>         0.0878
     38 H13        -6.9349    3.6263    2.6803 H         1 <0>         0.3761
     39 H14        -5.1050   -0.1389   -5.4596 H         1 <0>         0.0820
     40 H15        -4.2199    0.9705   -6.5525 H         1 <0>         0.1291
     41 O7         -2.0795   -0.0171    2.7446 O.co2     1 <0>        -0.7472
@<TRIPOS>BOND
     1    1    2 1
     2    1   27 1
     3    1   28 1
     4    1   29 1
     5    2    3 1
     6    3    8 ar
     7    3    4 ar
     8    4    5 ar
     9    4   30 1
    10    5    6 ar
    11    5   31 1
    12    6    7 ar
    13    6   32 1
    14    7    8 ar
    15    7    9 1
    16    8   33 1
    17    9   10 1
    18    9   19 1
    19    9   11 1
    20   11   16 ar
    21   11   12 ar
    22   12   13 ar
    23   12   34 1
    24   13   26 1
    25   13   14 ar
    26   14   15 ar
    27   14   24 1
    28   15   16 ar
    29   15   35 1
    30   16   17 1
    31   17   18 1
    32   18   19 2
    33   18   22 1
    34   19   20 1
    35   20   21 2
    36   20   41 1
    37   22   23 1
    38   22   36 1
    39   22   37 1
    40   23   38 1
    41   24   25 1
    42   25   26 1
    43   25   39 1
    44   25   40 1
@<TRIPOS>MOLECULE
ZINC19850089
   38    40     0     0     0
SMALL
USER_CHARGES
2-[(E)-[3-(4-methoxyphenyl)-5-sulfanyl-1,2,4-triazol-4-yl]iminomethyl]benzoic acid
@<TRIPOS>ATOM
      1 C1          2.0460    3.4867   -6.3625 C.3       1 <0>         0.0191
      2 O1          1.8252    4.8312   -5.9317 O.3       1 <0>        -0.3134
      3 C2          2.0214    5.0968   -4.6137 C.ar      1 <0>         0.1519
      4 C3          1.8241    6.3834   -4.1298 C.ar      1 <0>        -0.1551
      5 C4          2.0217    6.6569   -2.7933 C.ar      1 <0>        -0.0289
      6 C5          2.4212    5.6383   -1.9258 C.ar      1 <0>        -0.0708
      7 C6          2.6241    4.3472   -2.4176 C.ar      1 <0>        -0.0425
      8 C7          2.4192    4.0810   -3.7545 C.ar      1 <0>        -0.2027
      9 C8          2.6347    5.9270   -0.4925 C.2       1 <0>         0.3018
     10 N1          2.7570    7.1145    0.0552 N.2       1 <0>        -0.2961
     11 N2          2.9313    6.9995    1.3229 N.pl3     1 <0>        -0.3951
     12 C9          2.9258    5.7316    1.6683 C.2       1 <0>         0.4517
     13 N3          2.7427    5.0009    0.5233 N.pl3     1 <0>        -0.3375
     14 N4          2.6737    3.6062    0.4097 N.2       1 <0>        -0.2701
     15 C10         3.7544    2.9177    0.2003 C.2       1 <0>         0.2029
     16 C11         3.6819    1.4519    0.0809 C.ar      1 <0>        -0.0644
     17 C12         2.4441    0.8075    0.0771 C.ar      1 <0>        -0.0780
     18 C13         2.3821   -0.5661   -0.0355 C.ar      1 <0>        -0.1346
     19 C14         3.5426   -1.3153   -0.1453 C.ar      1 <0>        -0.1008
     20 C15         4.7764   -0.6979   -0.1495 C.ar      1 <0>        -0.0878
     21 C16         4.8625    0.6894   -0.0309 C.ar      1 <0>        -0.0628
     22 C17         6.1788    1.3542   -0.0285 C.2       1 <0>         0.4911
     23 O2          6.2467    2.5673   -0.0358 O.co2     1 <0>        -0.6229
     24 O3          7.3063    0.6162   -0.0183 O.co2     1 <0>        -0.7301
     25 S1          3.1218    5.0906    3.2978 S.2       1 <0>        -0.6309
     26 H1          1.8529    3.4115   -7.4428 H         1 <0>         0.1037
     27 H2          1.3669    2.8119   -5.8207 H         1 <0>         0.0601
     28 H3          3.0881    3.2018   -6.1555 H         1 <0>         0.0618
     29 H4          1.5151    7.1706   -4.8014 H         1 <0>         0.1410
     30 H5          1.8680    7.6578   -2.4177 H         1 <0>         0.1441
     31 H6          2.9371    3.5575   -1.7507 H         1 <0>         0.1315
     32 H7          2.5723    3.0819   -4.1350 H         1 <0>         0.1390
     33 H8          4.7241    3.4294    0.1121 H         1 <0>         0.1973
     34 H9          1.5348    1.3840    0.1619 H         1 <0>         0.1318
     35 H10         1.4222   -1.0610   -0.0384 H         1 <0>         0.1243
     36 H11         3.4806   -2.3899   -0.2332 H         1 <0>         0.1249
     37 H12         5.6757   -1.2890   -0.2404 H         1 <0>         0.1406
     38 H13         3.0577    7.8982    1.9445 H         1 <0>         0.5059
@<TRIPOS>BOND
     1    1    2 1
     2    1   26 1
     3    1   27 1
     4    1   28 1
     5    2    3 1
     6    3    8 ar
     7    3    4 ar
     8    4    5 ar
     9    4   29 1
    10    5    6 ar
    11    5   30 1
    12    6    7 ar
    13    6    9 1
    14    7    8 ar
    15    7   31 1
    16    8   32 1
    17    9   13 1
    18    9   10 2
    19   10   11 1
    20   11   12 1
    21   11   38 1
    22   12   13 1
    23   12   25 2
    24   13   14 1
    25   14   15 2
    26   15   16 1
    27   15   33 1
    28   16   21 ar
    29   16   17 ar
    30   17   18 ar
    31   17   34 1
    32   18   19 ar
    33   18   35 1
    34   19   20 ar
    35   19   36 1
    36   20   21 ar
    37   20   37 1
    38   21   22 1
    39   22   23 2
    40   22   24 1
@<TRIPOS>MOLECULE
ZINC39932641
   33    35     0     0     0
SMALL
USER_CHARGES

@<TRIPOS>ATOM
      1 C1         -0.0168    1.3844    0.0097 C.ar      1 <0>        -0.1128
      2 C2          1.1601    2.1001    0.0023 C.ar      1 <0>        -0.0763
      3 C3          2.3861    1.4290   -0.0135 C.ar      1 <0>        -0.0973
      4 C4          2.4059    0.0159   -0.0213 C.ar      1 <0>        -0.0068
      5 C5          1.2002   -0.6884   -0.0131 C.ar      1 <0>        -0.0950
      6 C6          0.0021   -0.0041    0.0020 C.ar      1 <0>        -0.0425
      7 Cl1        -1.4933   -0.8858    0.0122 Cl        1 <0>        -0.0838
      8 C7          3.6865   -0.7073   -0.0384 C.2       1 <0>         0.1181
      9 C8          4.0406   -1.7364    0.8046 C.2       1 <0>        -0.2259
     10 C9          5.3326   -2.1317    0.4455 C.2       1 <0>        -0.1463
     11 C10         5.7201   -1.3257   -0.6077 C.2       1 <0>        -0.0133
     12 O1          4.7095   -0.4782   -0.8862 O.3       1 <0>        -0.0816
     13 C11         6.9638   -1.3839   -1.2829 C.2       1 <0>         0.2400
     14 N1          7.2118   -0.5606   -2.2713 N.2       1 <0>        -0.3405
     15 N2          8.3445   -0.6137   -2.8863 N.2       1 <0>        -0.3485
     16 C12         8.5940    0.2148   -3.8810 C.2       1 <0>         0.3955
     17 N3          9.7335    0.3011   -4.6511 N.am      1 <0>        -0.6472
     18 C13         9.8649    1.1812   -5.6288 C.2       1 <0>         0.5332
     19 O2         10.8708    1.2507   -6.3024 O.2       1 <0>        -0.4918
     20 C14         8.6754    2.1005   -5.8558 C.3       1 <0>        -0.1338
     21 S1          7.5312    1.4844   -4.5522 S.3       1 <0>        -0.0861
     22 C15         3.6447    2.1870   -0.0225 C.2       1 <0>         0.5126
     23 O3          3.6222    3.4107   -0.0161 O.co2     1 <0>        -0.6809
     24 O4          4.7157    1.5946   -0.0363 O.co2     1 <0>        -0.6513
     25 H1         -0.9616    1.9072    0.0260 H         1 <0>         0.1304
     26 H2          1.1356    3.1798    0.0083 H         1 <0>         0.1428
     27 H3          1.2054   -1.7684   -0.0194 H         1 <0>         0.1342
     28 H4          3.4355   -2.1579    1.5937 H         1 <0>         0.1492
     29 H5          5.9162   -2.9163    0.9038 H         1 <0>         0.1522
     30 H6          7.7078   -2.1071   -0.9830 H         1 <0>         0.1363
     31 H7         10.4671   -0.3068   -4.4688 H         1 <0>         0.4166
     32 H8          8.9446    3.1435   -5.6891 H         1 <0>         0.1511
     33 H9          8.2502    1.9584   -6.8493 H         1 <0>         0.1498
@<TRIPOS>BOND
     1    1    6 ar
     2    1    2 ar
     3    1   25 1
     4    2    3 ar
     5    2   26 1
     6    3    4 ar
     7    3   22 1
     8    4    5 ar
     9    4    8 1
    10    5    6 ar
    11    5   27 1
    12    6    7 1
    13    8   12 1
    14    8    9 2
    15    9   10 1
    16    9   28 1
    17   10   11 2
    18   10   29 1
    19   11   12 1
    20   11   13 1
    21   13   14 2
    22   13   30 1
    23   14   15 1
    24   15   16 2
    25   16   21 1
    26   16   17 1
    27   17   18 am
    28   17   31 1
    29   18   19 2
    30   18   20 1
    31   20   21 1
    32   20   32 1
    33   20   33 1
    34   22   23 2
    35   22   24 1
@<TRIPOS>MOLECULE
ZINC58280372
   36    37     0     0     0
SMALL
USER_CHARGES

@<TRIPOS>ATOM
      1 C1         -0.0187    1.5258    0.0104 C.3       1 <0>        -0.1587
      2 C2          0.0021   -0.0041    0.0020 C.3       1 <0>         0.1851
      3 H1         -1.0205   -0.3814    0.0098 H         1 <0>         0.1022
      4 C3          0.7074   -0.4901   -1.2379 C.ar      1 <0>        -0.0788
      5 C4          2.0891   -0.5108   -1.2839 C.ar      1 <0>        -0.0632
      6 C5          2.7360   -0.9565   -2.4211 C.ar      1 <0>        -0.1115
      7 C6          2.0015   -1.3821   -3.5123 C.ar      1 <0>        -0.0599
      8 C7          0.6203   -1.3622   -3.4660 C.ar      1 <0>        -0.0460
      9 C8         -0.0268   -0.9204   -2.3269 C.ar      1 <0>        -0.0450
     10 N1         -0.1661   -1.8174   -4.6345 N.pl3     1 <0>         0.0345
     11 O1          0.3998   -2.2065   -5.6295 O.2       1 <0>        -0.1619
     12 O2         -1.3742   -1.8000   -4.5939 O.3       1 <0>        -0.1563
     13 N2          0.7106   -0.4894    1.1889 N.am      1 <0>        -0.7435
     14 C9          0.0512   -0.6335    2.3554 C.2       1 <0>         0.5737
     15 O3         -1.1318   -0.3607    2.4228 O.2       1 <0>        -0.5061
     16 C10         0.7647   -1.1222    3.5506 C.ar      1 <0>        -0.2995
     17 C11         2.1279   -1.4344    3.4886 C.ar      1 <0>        -0.0019
     18 C12         2.7507   -1.8884    4.6374 C.ar      1 <0>        -0.2813
     19 C13         2.0167   -2.0197    5.8028 C.ar      1 <0>         0.1235
     20 N3          0.7328   -1.7202    5.8387 N.ar      1 <0>        -0.5367
     21 C14         0.0907   -1.2768    4.7711 C.ar      1 <0>         0.4521
     22 O4         -1.2270   -0.9758    4.8551 O.3       1 <0>        -0.6330
     23 C15         2.6963   -2.5144    7.0536 C.3       1 <0>         0.5150
     24 F1          3.2060   -1.4257    7.7691 F         1 <0>        -0.1791
     25 F2          1.7710   -3.2016    7.8465 F         1 <0>        -0.1696
     26 F3          3.7430   -3.3753    6.7062 F         1 <0>        -0.1801
     27 H2          1.0039    1.9031    0.0027 H         1 <0>         0.0578
     28 H3         -0.5459    1.8868   -0.8726 H         1 <0>         0.0637
     29 H4         -0.5289    1.8773    0.9072 H         1 <0>         0.0748
     30 H5          2.6629   -0.1783   -0.4315 H         1 <0>         0.1430
     31 H6          3.8153   -0.9720   -2.4573 H         1 <0>         0.1496
     32 H7          2.5070   -1.7297   -4.4012 H         1 <0>         0.1528
     33 H8         -1.1061   -0.9084   -2.2892 H         1 <0>         0.1562
     34 H9          1.6544   -0.7070    1.1351 H         1 <0>         0.3901
     35 H10         2.6796   -1.3239    2.5668 H         1 <0>         0.1149
     36 H11         3.8013   -2.1386    4.6245 H         1 <0>         0.1230
@<TRIPOS>BOND
     1    1    2 1
     2    1   27 1
     3    1   28 1
     4    1   29 1
     5    2    3 1
     6    2    4 1
     7    2   13 1
     8    4    9 ar
     9    4    5 ar
    10    5    6 ar
    11    5   30 1
    12    6    7 ar
    13    6   31 1
    14    7    8 ar
    15    7   32 1
    16    8    9 ar
    17    8   10 1
    18    9   33 1
    19   10   11 2
    20   10   12 1
    21   13   14 am
    22   13   34 1
    23   14   15 2
    24   14   16 1
    25   16   21 ar
    26   16   17 ar
    27   17   18 ar
    28   17   35 1
    29   18   19 ar
    30   18   36 1
    31   19   20 ar
    32   19   23 1
    33   20   21 ar
    34   21   22 1
    35   23   24 1
    36   23   25 1
    37   23   26 1
@<TRIPOS>MOLECULE
ZINC64478993
   39    42     0     0     0
SMALL
USER_CHARGES

@<TRIPOS>ATOM
      1 C1         -0.0173    1.4248    0.0099 C.3       1 <0>         0.0252
      2 O1          0.0021   -0.0041    0.0020 O.3       1 <0>        -0.2870
      3 C2          0.6256   -0.6182    1.0412 C.ar      1 <0>         0.1020
      4 C3          1.2013    0.1412    2.0496 C.ar      1 <0>        -0.1787
      5 C4          1.8357   -0.4766    3.1061 C.ar      1 <0>        -0.1273
      6 C5          1.9002   -1.8712    3.1644 C.ar      1 <0>        -0.0196
      7 C6          1.3204   -2.6374    2.1497 C.ar      1 <0>        -0.1975
      8 C7          0.6808   -2.0113    1.0949 C.ar      1 <0>         0.2592
      9 N1          0.0937   -2.7751    0.0793 N.2       1 <0>        -1.0662
     10 S1          0.1594   -4.4285    0.1434 S.o2      1 <0>         2.5984
     11 O2          1.5270   -4.7866   -0.0002 O.2       1 <0>        -1.0254
     12 O3         -0.6173   -4.8226    1.2663 O.2       1 <0>        -1.0228
     13 C8         -0.6736   -5.0388   -1.2842 C.ar      1 <0>        -0.6048
     14 C9          0.0055   -5.7369   -2.2456 C.ar      1 <0>         0.0036
     15 C10        -0.6007   -6.2431   -3.3948 C.ar      1 <0>        -0.1326
     16 C11        -1.9533   -6.0485   -3.6054 C.ar      1 <0>         0.1750
     17 C12        -2.6302   -5.3376   -2.6197 C.ar      1 <0>        -0.1203
     18 C13        -2.0509   -4.8248   -1.4585 C.ar      1 <0>         0.0469
     19 C14        -2.8946   -4.1372   -0.5693 C.ar      1 <0>        -0.0426
     20 C15        -4.2223   -4.0110   -0.8795 C.ar      1 <0>        -0.1317
     21 C16        -4.7867   -4.5343   -2.0424 C.ar      1 <0>        -0.0038
     22 C17        -3.9880   -5.2093   -2.9487 C.ar      1 <0>        -0.1752
     23 C18        -4.1145   -5.9038   -4.2355 C.2       1 <0>         0.5821
     24 O4         -5.1373   -6.0307   -4.8824 O.2       1 <0>        -0.4985
     25 N2         -2.8881   -6.3796   -4.5781 N.am      1 <0>        -0.6547
     26 C19         2.5593   -2.5138    4.2612 C.1       1 <0>         0.2764
     27 N3          3.0822   -3.0236    5.1314 N.1       1 <0>        -0.4569
     28 H1          1.0053    1.8021    0.0021 H         1 <0>         0.0461
     29 H2         -0.5445    1.7859   -0.8732 H         1 <0>         0.0882
     30 H3         -0.5275    1.7763    0.9067 H         1 <0>         0.0463
     31 H4          1.1526    1.2193    2.0065 H         1 <0>         0.1244
     32 H5          2.2834    0.1176    3.8891 H         1 <0>         0.1172
     33 H6          1.3684   -3.7155    2.1908 H         1 <0>         0.1130
     34 H7          1.0636   -5.9037   -2.1076 H         1 <0>         0.1488
     35 H8         -0.0138   -6.7868   -4.1203 H         1 <0>         0.1377
     36 H9         -2.5020   -3.7154    0.3442 H         1 <0>         0.1579
     37 H10        -4.8631   -3.4811   -0.1903 H         1 <0>         0.1386
     38 H11        -5.8410   -4.4064   -2.2386 H         1 <0>         0.1373
     39 H12        -2.6936   -6.8792   -5.3865 H         1 <0>         0.4215
@<TRIPOS>BOND
     1    1    2 1
     2    1   28 1
     3    1   29 1
     4    1   30 1
     5    2    3 1
     6    3    8 ar
     7    3    4 ar
     8    4    5 ar
     9    4   31 1
    10    5    6 ar
    11    5   32 1
    12    6    7 ar
    13    6   26 1
    14    7    8 ar
    15    7   33 1
    16    8    9 1
    17    9   10 1
    18   10   11 2
    19   10   12 2
    20   10   13 1
    21   13   18 ar
    22   13   14 ar
    23   14   15 ar
    24   14   34 1
    25   15   16 ar
    26   15   35 1
    27   16   25 1
    28   16   17 ar
    29   17   22 ar
    30   17   18 ar
    31   18   19 ar
    32   19   20 ar
    33   19   36 1
    34   20   21 ar
    35   20   37 1
    36   21   22 ar
    37   21   38 1
    38   22   23 1
    39   23   24 2
    40   23   25 am
    41   25   39 1
    42   26   27 3
@<TRIPOS>MOLECULE
ZINC01032566
   45    48     0     0     0
SMALL
USER_CHARGES
4-[[1-(4-chlorophenyl)pyrrol-2-yl]methyl]-6-(p-tolyl)-2H-pyridazin-3-one
@<TRIPOS>ATOM
      1 C1         -0.3606    8.1347    6.7144 C.3       1 <0>        -0.1199
      2 C2         -0.7463    6.9458    5.8725 C.ar      1 <0>        -0.0712
      3 C3         -1.5676    5.9656    6.3996 C.ar      1 <0>        -0.1216
      4 C4         -1.9240    4.8746    5.6331 C.ar      1 <0>        -0.0800
      5 C5         -1.4547    4.7617    4.3258 C.ar      1 <0>        -0.0421
      6 C6         -0.6228    5.7494    3.8018 C.ar      1 <0>        -0.0930
      7 C7         -0.2771    6.8387    4.5756 C.ar      1 <0>        -0.1183
      8 C8         -1.8344    3.5913    3.4969 C.2       1 <0>         0.1114
      9 C9         -1.3500    3.4789    2.1727 C.2       1 <0>        -0.0630
     10 C10        -1.7236    2.3918    1.4390 C.2       1 <0>        -0.1385
     11 C11        -2.5649    1.4374    2.0527 C.2       1 <0>         0.4863
     12 O1         -2.9215    0.4460    1.4367 O.2       1 <0>        -0.5191
     13 N1         -2.9707    1.6296    3.3217 N.am      1 <0>        -0.4457
     14 H1         -3.5664    0.9502    3.7501 H         1 <0>         0.4492
     15 N2         -2.6136    2.6615    3.9969 N.2       1 <0>        -0.2152
     16 C12        -1.2488    2.2113    0.0202 C.3       1 <0>         0.0029
     17 C13        -0.0162    1.3443    0.0094 C.2       1 <0>         0.0166
     18 C14         0.0021   -0.0041    0.0020 C.2       1 <0>        -0.1653
     19 C15         1.3520   -0.4087   -0.0130 C.2       1 <0>        -0.1900
     20 C16         2.1091    0.7072   -0.0143 C.2       1 <0>        -0.0060
     21 N3          1.2751    1.7885   -0.0005 N.pl3     1 <0>        -0.4037
     22 C17         1.6778    3.1318    0.0022 C.ar      1 <0>         0.1317
     23 C18         1.1332    4.0227   -0.9127 C.ar      1 <0>        -0.1141
     24 C19         1.5272    5.3464   -0.9044 C.ar      1 <0>        -0.0912
     25 C20         2.4727    5.7824    0.0072 C.ar      1 <0>        -0.0367
     26 C21         3.0209    4.8950    0.9166 C.ar      1 <0>        -0.0895
     27 C22         2.6259    3.5716    0.9159 C.ar      1 <0>        -0.1078
     28 Cl1         2.9716    7.4451    0.0101 Cl        1 <0>        -0.0570
     29 H2          0.5579    7.9126    7.2577 H         1 <0>         0.0737
     30 H3         -0.2018    8.9997    6.0705 H         1 <0>         0.0688
     31 H4         -1.1590    8.3518    7.4240 H         1 <0>         0.0688
     32 H5         -1.9310    6.0543    7.4127 H         1 <0>         0.1274
     33 H6         -2.5651    4.1097    6.0457 H         1 <0>         0.1337
     34 H7         -0.2524    5.6644    2.7909 H         1 <0>         0.1240
     35 H8          0.3645    7.6066    4.1693 H         1 <0>         0.1279
     36 H9         -0.7042    4.2357    1.7526 H         1 <0>         0.1471
     37 H10        -1.0124    3.1843   -0.4104 H         1 <0>         0.0885
     38 H11        -2.0333    1.7348   -0.5676 H         1 <0>         0.1093
     39 H12        -0.8599   -0.6547    0.0062 H         1 <0>         0.1445
     40 H13         1.7139   -1.4263   -0.0220 H         1 <0>         0.1416
     41 H14         3.1886    0.7402   -0.0250 H         1 <0>         0.1650
     42 H15         0.3990    3.6818   -1.6277 H         1 <0>         0.1418
     43 H16         1.1005    6.0408   -1.6130 H         1 <0>         0.1446
     44 H17         3.7584    5.2376    1.6274 H         1 <0>         0.1440
     45 H18         3.0545    2.8793    1.6254 H         1 <0>         0.1397
@<TRIPOS>BOND
     1    1    2 1
     2    1   29 1
     3    1   30 1
     4    1   31 1
     5    2    7 ar
     6    2    3 ar
     7    3    4 ar
     8    3   32 1
     9    4    5 ar
    10    4   33 1
    11    5    6 ar
    12    5    8 1
    13    6    7 ar
    14    6   34 1
    15    7   35 1
    16    8   15 2
    17    8    9 1
    18    9   10 2
    19    9   36 1
    20   10   11 1
    21   10   16 1
    22   11   12 2
    23   11   13 am
    24   13   14 1
    25   13   15 1
    26   16   17 1
    27   16   37 1
    28   16   38 1
    29   17   21 1
    30   17   18 2
    31   18   19 1
    32   18   39 1
    33   19   20 2
    34   19   40 1
    35   20   21 1
    36   20   41 1
    37   21   22 1
    38   22   27 ar
    39   22   23 ar
    40   23   24 ar
    41   23   42 1
    42   24   25 ar
    43   24   43 1
    44   25   26 ar
    45   25   28 1
    46   26   27 ar
    47   26   44 1
    48   27   45 1
@<TRIPOS>MOLECULE
ZINC05058829
   60    64     0     0     0
SMALL
USER_CHARGES
N-[1-(1-adamantyl)ethyl]-2-methyl-3-oxo-4-oxaspiro[4.5]dec-1-ene-1-carboxamide
@<TRIPOS>ATOM
      1 C1         -0.0127    1.0858    0.0080 C.3       1 <0>        -0.1080
      2 C2         -0.7181    1.5718    1.2479 C.2       1 <0>        -0.1003
      3 C3         -0.1290    1.8328    2.4268 C.2       1 <0>        -0.1653
      4 C4         -1.2189    2.2901    3.3648 C.3       1 <0>         0.1342
      5 C5         -0.9335    3.7122    3.8451 C.3       1 <0>        -0.1171
      6 C6         -2.0554    4.1701    4.7798 C.3       1 <0>        -0.1203
      7 C7         -2.1375    3.2240    5.9793 C.3       1 <0>        -0.1228
      8 C8         -2.4351    1.8047    5.4913 C.3       1 <0>        -0.1201
      9 C9         -1.3138    1.3411    4.5586 C.3       1 <0>        -0.1170
     10 O1         -2.4555    2.2590    2.6030 O.3       1 <0>        -0.2992
     11 C10        -2.1607    1.8420    1.3577 C.2       1 <0>         0.4963
     12 O2         -2.9662    1.7056    0.4590 O.2       1 <0>        -0.4338
     13 C11         1.3072    1.6982    2.7434 C.2       1 <0>         0.5821
     14 O3          2.0843    1.3163    1.8905 O.2       1 <0>        -0.5111
     15 N1          1.7562    1.9990    3.9780 N.am      1 <0>        -0.7152
     16 C12         3.1809    1.8655    4.2920 C.3       1 <0>         0.1504
     17 H1          3.5937    1.0134    3.7520 H         1 <0>         0.0939
     18 C13         3.9170    3.1398    3.8735 C.3       1 <0>        -0.1692
     19 C14         3.3533    1.6478    5.7966 C.3       1 <0>        -0.0594
     20 C15         2.6173    0.3735    6.2152 C.3       1 <0>        -0.1020
     21 C16         2.7897    0.1558    7.7198 C.3       1 <0>        -0.0856
     22 C17         4.2776    0.0164    8.0478 C.3       1 <0>        -0.1095
     23 C18         5.0137    1.2907    7.6292 C.3       1 <0>        -0.0851
     24 C19         4.8413    1.5084    6.1246 C.3       1 <0>        -0.1014
     25 C20         4.4342    2.4868    8.3872 C.3       1 <0>        -0.1089
     26 C21         2.9463    2.6262    8.0593 C.3       1 <0>        -0.0847
     27 C22         2.2102    1.3519    8.4779 C.3       1 <0>        -0.1091
     28 C23         2.7739    2.8439    6.5547 C.3       1 <0>        -0.1056
     29 H2          0.0021   -0.0041    0.0020 H         1 <0>         0.0893
     30 H3          1.0099    1.4631    0.0003 H         1 <0>         0.0993
     31 H4         -0.5399    1.4469   -0.8751 H         1 <0>         0.0800
     32 H5          0.0158    3.7311    4.3805 H         1 <0>         0.0832
     33 H6         -0.8798    4.3817    2.9867 H         1 <0>         0.0797
     34 H7         -3.0036    4.1585    4.2422 H         1 <0>         0.0753
     35 H8         -1.8477    5.1818    5.1284 H         1 <0>         0.0735
     36 H9         -2.9336    3.5527    6.6474 H         1 <0>         0.0713
     37 H10        -1.1879    3.2325    6.5143 H         1 <0>         0.0636
     38 H11        -3.3825    1.7968    4.9525 H         1 <0>         0.0752
     39 H12        -2.4977    1.1320    6.3467 H         1 <0>         0.0734
     40 H13        -1.5291    0.3327    4.2050 H         1 <0>         0.0796
     41 H14        -0.3675    1.3420    5.0996 H         1 <0>         0.0833
     42 H15         1.1360    2.3039    4.6587 H         1 <0>         0.3990
     43 H16         4.9770    3.0405    4.1071 H         1 <0>         0.0726
     44 H17         3.7942    3.2949    2.8016 H         1 <0>         0.0618
     45 H18         3.5042    3.9919    4.4135 H         1 <0>         0.0616
     46 H19         1.5572    0.4728    5.9816 H         1 <0>         0.0596
     47 H20         3.0301   -0.4786    5.6752 H         1 <0>         0.0648
     48 H21         2.2653   -0.7520    8.0180 H         1 <0>         0.0702
     49 H22         4.6904   -0.8356    7.5077 H         1 <0>         0.0621
     50 H23         4.4004   -0.1386    9.1197 H         1 <0>         0.0624
     51 H24         6.0737    1.1914    7.8628 H         1 <0>         0.0718
     52 H25         5.2541    0.6563    5.5845 H         1 <0>         0.0660
     53 H26         5.3657    2.4163    5.8264 H         1 <0>         0.0700
     54 H27         4.5570    2.3317    9.4591 H         1 <0>         0.0626
     55 H28         4.9586    3.3946    8.0890 H         1 <0>         0.0623
     56 H29         2.5335    3.4783    8.5993 H         1 <0>         0.0709
     57 H30         1.1502    1.4512    8.2442 H         1 <0>         0.0606
     58 H31         2.3330    1.1968    9.5498 H         1 <0>         0.0630
     59 H32         3.2983    3.7517    6.2565 H         1 <0>         0.0712
     60 H33         1.7139    2.9432    6.3210 H         1 <0>         0.0551
@<TRIPOS>BOND
     1    1    2 1
     2    1   29 1
     3    1   30 1
     4    1   31 1
     5    2   11 1
     6    2    3 2
     7    3    4 1
     8    3   13 1
     9    4    9 1
    10    4    5 1
    11    4   10 1
    12    5    6 1
    13    5   32 1
    14    5   33 1
    15    6    7 1
    16    6   34 1
    17    6   35 1
    18    7    8 1
    19    7   36 1
    20    7   37 1
    21    8    9 1
    22    8   38 1
    23    8   39 1
    24    9   40 1
    25    9   41 1
    26   10   11 1
    27   11   12 2
    28   13   14 2
    29   13   15 am
    30   15   16 1
    31   15   42 1
    32   16   17 1
    33   16   18 1
    34   16   19 1
    35   18   43 1
    36   18   44 1
    37   18   45 1
    38   19   24 1
    39   19   28 1
    40   19   20 1
    41   20   21 1
    42   20   46 1
    43   20   47 1
    44   21   27 1
    45   21   22 1
    46   21   48 1
    47   22   23 1
    48   22   49 1
    49   22   50 1
    50   23   24 1
    51   23   25 1
    52   23   51 1
    53   24   52 1
    54   24   53 1
    55   25   26 1
    56   25   54 1
    57   25   55 1
    58   26   27 1
    59   26   28 1
    60   26   56 1
    61   27   57 1
    62   27   58 1
    63   28   59 1
    64   28   60 1
@<TRIPOS>MOLECULE
ZINC20182029
   39    42     0     0     0
SMALL
USER_CHARGES
2-(4-fluorophenyl)-N-[3-(trifluoromethyl)phenyl]imidazo[3,2-a]pyrimidin-3-amine
@<TRIPOS>ATOM
      1 C1         -0.1495    4.3774   -3.5404 C.ar      1 <0>        -0.0707
      2 C2         -1.3217    3.6460   -3.6061 C.ar      1 <0>        -0.1181
      3 C3         -2.0814    3.4474   -2.4680 C.ar      1 <0>        -0.1343
      4 C4         -1.6665    3.9702   -1.2588 C.ar      1 <0>        -0.1328
      5 C5         -0.4893    4.7050   -1.1889 C.ar      1 <0>         0.2038
      6 C6          0.2690    4.9071   -2.3360 C.ar      1 <0>        -0.1545
      7 N1         -0.0690    5.2388    0.0309 N.pl3     1 <0>        -0.6642
      8 C7          1.1531    5.9066    0.1160 C.2       1 <0>         0.1695
      9 C8          1.3408    7.2682    0.2205 C.2       1 <0>         0.1335
     10 N2          2.6654    7.5030    0.2810 N.2       1 <0>        -0.4501
     11 C9          3.3180    6.3548    0.2101 C.2       1 <0>         0.3963
     12 N3          2.3969    5.3373    0.1061 N.pl3     1 <0>        -0.4033
     13 C10         2.8181    4.0389    0.0172 C.2       1 <0>         0.1135
     14 C11         4.1466    3.7753    0.0329 C.2       1 <0>        -0.1999
     15 C12         5.0579    4.8372    0.1396 C.2       1 <0>         0.1782
     16 N4          4.6309    6.0744    0.2240 N.2       1 <0>        -0.4329
     17 C13         0.2721    8.2935    0.2628 C.ar      1 <0>        -0.0293
     18 C14        -0.8933    8.1207   -0.4837 C.ar      1 <0>        -0.0625
     19 C15        -1.8871    9.0765   -0.4379 C.ar      1 <0>        -0.1546
     20 C16        -1.7250   10.2110    0.3408 C.ar      1 <0>         0.1112
     21 C17        -0.5671   10.3896    1.0804 C.ar      1 <0>        -0.1548
     22 C18         0.4306    9.4375    1.0447 C.ar      1 <0>        -0.0530
     23 F1         -2.6991   11.1464    0.3787 F         1 <0>        -0.1361
     24 C19        -3.3607    2.6547   -2.5459 C.3       1 <0>         0.5079
     25 F2         -3.5655    2.2281   -3.8624 F         1 <0>        -0.1747
     26 F3         -3.2714    1.5413   -1.7035 F         1 <0>        -0.1759
     27 F4         -4.4327    3.4587   -2.1440 F         1 <0>        -0.1745
     28 H1          0.4393    4.5340   -4.4321 H         1 <0>         0.1367
     29 H2         -1.6466    3.2328   -4.5496 H         1 <0>         0.1395
     30 H3         -2.2581    3.8109   -0.3694 H         1 <0>         0.1373
     31 H4          1.1843    5.4780   -2.2854 H         1 <0>         0.1223
     32 H5         -0.7014    5.1328    0.9247 H         1 <0>         0.4442
     33 H6          2.1013    3.2351   -0.0644 H         1 <0>         0.1710
     34 H7          4.5013    2.7575   -0.0361 H         1 <0>         0.1681
     35 H8          6.1185    4.6341    0.1526 H         1 <0>         0.1873
     36 H9         -1.0188    7.2387   -1.0942 H         1 <0>         0.1339
     37 H10        -2.7912    8.9421   -1.0132 H         1 <0>         0.1399
     38 H11        -0.4453   11.2757    1.6856 H         1 <0>         0.1413
     39 H12         1.3332    9.5779    1.6210 H         1 <0>         0.1407
@<TRIPOS>BOND
     1    1    6 ar
     2    1    2 ar
     3    1   28 1
     4    2    3 ar
     5    2   29 1
     6    3    4 ar
     7    3   24 1
     8    4    5 ar
     9    4   30 1
    10    5    6 ar
    11    5    7 1
    12    6   31 1
    13    7    8 1
    14    7   32 1
    15    8   12 1
    16    8    9 2
    17    9   10 1
    18    9   17 1
    19   10   11 2
    20   11   16 1
    21   11   12 1
    22   12   13 1
    23   13   14 2
    24   13   33 1
    25   14   15 1
    26   14   34 1
    27   15   16 2
    28   15   35 1
    29   17   22 ar
    30   17   18 ar
    31   18   19 ar
    32   18   36 1
    33   19   20 ar
    34   19   37 1
    35   20   21 ar
    36   20   23 1
    37   21   22 ar
    38   21   38 1
    39   22   39 1
    40   24   25 1
    41   24   26 1
    42   24   27 1
@<TRIPOS>MOLECULE
ZINC01634550
   58    61     0     0     0
SMALL
USER_CHARGES

@<TRIPOS>ATOM
      1 C1         -0.2330    1.4654    0.6294 C.3       1 <0>        -0.1541
      2 C2         -0.1591   -0.0559    0.5013 C.3       1 <0>        -0.0316
      3 C3          0.1047   -0.4337   -0.9573 C.3       1 <0>        -0.1125
      4 C4          1.5215   -0.0255   -1.3585 C.3       1 <0>        -0.1510
      5 C5          2.5281   -0.7861   -0.5026 C.3       1 <0>         0.1166
      6 H1          2.4017   -1.8609   -0.6648 H         1 <0>         0.0509
      7 C6          2.3298   -0.4818    0.9822 C.3       1 <0>        -0.0412
      8 C7          0.8898   -0.6705    1.4156 C.3       1 <0>        -0.0555
      9 H2          0.6995   -1.7727    1.4039 H         1 <0>         0.0642
     10 C8          0.6751   -0.2288    2.8636 C.3       1 <0>        -0.1117
     11 C9         -0.6683   -0.7844    3.3575 C.3       1 <0>        -0.0868
     12 C10        -1.7488   -0.3873    2.3794 C.2       1 <0>        -0.1179
     13 C11        -2.8646    0.1593    2.8052 C.2       1 <0>        -0.1916
     14 C12        -1.5322   -0.6339    0.9039 C.3       1 <0>        -0.0424
     15 H3         -1.5470   -1.7016    0.6997 H         1 <0>         0.0923
     16 C13        -2.6376    0.0656    0.1109 C.3       1 <0>         0.0562
     17 O1         -3.8941   -0.5506    0.3999 O.3       1 <0>        -0.2966
     18 C14        -4.9869   -0.0454   -0.2271 C.ar      1 <0>         0.1900
     19 C15        -4.8447    1.0235   -1.1101 C.ar      1 <0>        -0.2283
     20 C16        -5.9336    1.5429   -1.7478 C.ar      1 <0>        -0.0097
     21 C17        -7.2017    0.9985   -1.5141 C.ar      1 <0>        -0.2014
     22 C18        -8.3878    1.5350   -2.1846 C.2       1 <0>         0.0108
     23 C19        -9.5905    0.9631   -1.9163 C.2       1 <0>        -0.2572
     24 C20        -9.6677   -0.1166   -1.0127 C.2       1 <0>         0.5094
     25 O2        -10.7522   -0.6201   -0.7811 O.2       1 <0>        -0.4611
     26 O3         -8.5765   -0.6039   -0.4016 O.3       1 <0>        -0.2701
     27 C21        -7.3516   -0.0810   -0.6239 C.ar      1 <0>         0.1900
     28 C22        -6.2335   -0.5999    0.0117 C.ar      1 <0>        -0.1771
     29 C23         3.2092   -1.4894    1.7588 C.3       1 <0>        -0.1472
     30 C24         2.8544    0.9187    1.2971 C.3       1 <0>        -0.1364
     31 O4          3.8570   -0.4171   -0.8857 O.3       1 <0>        -0.5633
     32 H4          0.7198    1.9019    0.3300 H         1 <0>         0.0667
     33 H5         -1.0256    1.8462   -0.0147 H         1 <0>         0.0540
     34 H6         -0.4459    1.7329    1.6644 H         1 <0>         0.0650
     35 H7         -0.0082   -1.5121   -1.0789 H         1 <0>         0.0666
     36 H8         -0.6041    0.0771   -1.6102 H         1 <0>         0.0672
     37 H9          1.6778   -0.2879   -2.4120 H         1 <0>         0.0621
     38 H10         1.6573    1.0466   -1.2514 H         1 <0>         0.0765
     39 H11         1.4631   -0.6337    3.5032 H         1 <0>         0.0681
     40 H12         0.6741    0.8515    2.9589 H         1 <0>         0.0706
     41 H13        -0.6089   -1.8710    3.4226 H         1 <0>         0.0721
     42 H14        -0.8903   -0.3709    4.3418 H         1 <0>         0.0707
     43 H15        -3.0147    0.3278    3.8614 H         1 <0>         0.0959
     44 H16        -3.6320    0.4402    2.0992 H         1 <0>         0.1073
     45 H17        -2.6759    1.1180    0.3918 H         1 <0>         0.0766
     46 H18        -2.4284   -0.0185   -0.9556 H         1 <0>         0.0722
     47 H19        -3.8662    1.4436   -1.2906 H         1 <0>         0.1400
     48 H20        -5.8173    2.3717   -2.4305 H         1 <0>         0.1436
     49 H21        -8.3087    2.3630   -2.8735 H         1 <0>         0.1537
     50 H22       -10.4852    1.3347   -2.3935 H         1 <0>         0.1645
     51 H23        -6.3351   -1.4309    0.6940 H         1 <0>         0.1524
     52 H24         4.2522   -1.3588    1.4706 H         1 <0>         0.0636
     53 H25         3.1034   -1.3141    2.8294 H         1 <0>         0.0565
     54 H26         2.8917   -2.5053    1.5238 H         1 <0>         0.0502
     55 H27         2.4010    1.6383    0.6153 H         1 <0>         0.0559
     56 H28         2.5988    1.1801    2.3239 H         1 <0>         0.0542
     57 H29         3.9376    0.9365    1.1765 H         1 <0>         0.0619
     58 H30         4.0672   -0.6080   -1.8101 H         1 <0>         0.3760
@<TRIPOS>BOND
     1    1    2 1
     2    1   32 1
     3    1   33 1
     4    1   34 1
     5    2    8 1
     6    2   14 1
     7    2    3 1
     8    3    4 1
     9    3   35 1
    10    3   36 1
    11    4    5 1
    12    4   37 1
    13    4   38 1
    14    5    6 1
    15    5    7 1
    16    5   31 1
    17    7    8 1
    18    7   29 1
    19    7   30 1
    20    8    9 1
    21    8   10 1
    22   10   11 1
    23   10   39 1
    24   10   40 1
    25   11   12 1
    26   11   41 1
    27   11   42 1
    28   12   13 2
    29   12   14 1
    30   13   43 1
    31   13   44 1
    32   14   15 1
    33   14   16 1
    34   16   17 1
    35   16   45 1
    36   16   46 1
    37   17   18 1
    38   18   28 ar
    39   18   19 ar
    40   19   20 ar
    41   19   47 1
    42   20   21 ar
    43   20   48 1
    44   21   27 ar
    45   21   22 1
    46   22   23 2
    47   22   49 1
    48   23   24 1
    49   23   50 1
    50   24   25 2
    51   24   26 1
    52   26   27 1
    53   27   28 ar
    54   28   51 1
    55   29   52 1
    56   29   53 1
    57   29   54 1
    58   30   55 1
    59   30   56 1
    60   30   57 1
    61   31   58 1
@<TRIPOS>MOLECULE
ZINC55082731
   61    65     0     0     0
SMALL
USER_CHARGES

@<TRIPOS>ATOM
      1 C1         -0.0167    1.3786    0.0076 C.ar      1 <0>        -0.1206
      2 C2          1.1684    2.0924   -0.0004 C.ar      1 <0>        -0.1191
      3 C3          2.3774    1.4278   -0.0160 C.ar      1 <0>        -0.1097
      4 C4          2.4031    0.0327   -0.0232 C.ar      1 <0>        -0.0565
      5 C5          1.2044   -0.6813   -0.0147 C.ar      1 <0>        -0.1146
      6 C6          0.0020   -0.0047    0.0004 C.ar      1 <0>        -0.1182
      7 C7          3.6948   -0.6857   -0.0404 C.2       1 <0>        -0.1077
      8 C8          3.7160   -2.0111   -0.0473 C.2       1 <0>        -0.1378
      9 C9          5.0330   -2.7436   -0.0648 C.3       1 <0>         0.0848
     10 N1          5.0867   -3.6815    1.0645 N.3       1 <0>        -0.5321
     11 C10         4.0849   -4.7453    0.9135 C.3       1 <0>         0.0383
     12 C11         4.0488   -5.5932    2.1894 C.3       1 <0>         0.1357
     13 N2          5.4131   -6.0603    2.4787 N.am      1 <0>        -0.6326
     14 C12         6.4968   -5.0664    2.5105 C.3       1 <0>         0.1174
     15 C13         6.4365   -4.2392    1.2220 C.3       1 <0>         0.0408
     16 C14         5.6635   -7.3644    2.7091 C.2       1 <0>         0.7110
     17 O1          4.7447   -8.1585    2.7694 O.2       1 <0>        -0.5814
     18 N3          6.9324   -7.7883    2.8726 N.am      1 <0>        -0.7420
     19 C15         7.2143   -9.2190    3.0131 C.3       1 <0>         0.2019
     20 C16         6.4811   -9.7653    4.2399 C.3       1 <0>        -0.1229
     21 C17         6.7756  -11.2595    4.3866 C.3       1 <0>        -0.0831
     22 C18         8.2816  -11.4681    4.5578 C.3       1 <0>        -0.1114
     23 C19         9.0148  -10.9218    3.3310 C.3       1 <0>        -0.0799
     24 C20         8.7204   -9.4276    3.1843 C.3       1 <0>        -0.1144
     25 C21         8.5365  -11.6612    2.0798 C.3       1 <0>        -0.1112
     26 C22         7.0305  -11.4526    1.9087 C.3       1 <0>        -0.0825
     27 C23         6.2973  -11.9988    3.1354 C.3       1 <0>        -0.1089
     28 C24         6.7360   -9.9584    1.7619 C.3       1 <0>        -0.1197
     29 H1         -0.9604    1.9035    0.0239 H         1 <0>         0.1221
     30 H2          1.1470    3.1722    0.0053 H         1 <0>         0.1234
     31 H3          3.3018    1.9862   -0.0229 H         1 <0>         0.1236
     32 H4          1.2176   -1.7612   -0.0206 H         1 <0>         0.1228
     33 H5         -0.9266   -0.5562    0.0067 H         1 <0>         0.1231
     34 H6          4.6213   -0.1307   -0.0473 H         1 <0>         0.1191
     35 H7          2.7896   -2.5661   -0.0403 H         1 <0>         0.1146
     36 H8          5.1296   -3.2951   -1.0000 H         1 <0>         0.0466
     37 H9          5.8490   -2.0259    0.0198 H         1 <0>         0.0826
     38 H10         3.1043   -4.3002    0.7447 H         1 <0>         0.0895
     39 H11         4.3494   -5.3761    0.0648 H         1 <0>         0.0395
     40 H12         3.6846   -4.9891    3.0203 H         1 <0>         0.0730
     41 H13         3.3921   -6.4504    2.0408 H         1 <0>         0.0974
     42 H14         6.3679   -4.4116    3.3723 H         1 <0>         0.0789
     43 H15         7.4586   -5.5753    2.5743 H         1 <0>         0.0792
     44 H16         6.6683   -4.8771    0.3690 H         1 <0>         0.0399
     45 H17         7.1615   -3.4271    1.2769 H         1 <0>         0.0888
     46 H18         7.6589   -7.1461    2.8973 H         1 <0>         0.3923
     47 H19         6.8219   -9.2386    5.1312 H         1 <0>         0.0570
     48 H20         5.4082   -9.6167    4.1179 H         1 <0>         0.0907
     49 H21         6.2533  -11.6487    5.2606 H         1 <0>         0.0717
     50 H22         8.6224  -10.9414    5.4491 H         1 <0>         0.0621
     51 H23         8.4914  -12.5326    4.6623 H         1 <0>         0.0646
     52 H24        10.0878  -11.0704    3.4530 H         1 <0>         0.0748
     53 H25         9.2427   -9.0385    2.3104 H         1 <0>         0.0667
     54 H26         9.0611   -8.9009    4.0757 H         1 <0>         0.0677
     55 H27         9.0589  -11.2720    1.2059 H         1 <0>         0.0617
     56 H28         8.7463  -12.7257    2.1844 H         1 <0>         0.0650
     57 H29         6.6897  -11.9793    1.0173 H         1 <0>         0.0713
     58 H30         6.5071  -13.0633    3.2399 H         1 <0>         0.0621
     59 H31         5.2244  -11.8502    3.0135 H         1 <0>         0.0649
     60 H32         5.6631   -9.8098    1.6400 H         1 <0>         0.0833
     61 H33         7.2584   -9.5692    0.8880 H         1 <0>         0.0566
@<TRIPOS>BOND
     1    1    6 ar
     2    1    2 ar
     3    1   29 1
     4    2    3 ar
     5    2   30 1
     6    3    4 ar
     7    3   31 1
     8    4    5 ar
     9    4    7 1
    10    5    6 ar
    11    5   32 1
    12    6   33 1
    13    7    8 2
    14    7   34 1
    15    8    9 1
    16    8   35 1
    17    9   10 1
    18    9   36 1
    19    9   37 1
    20   10   15 1
    21   10   11 1
    22   11   12 1
    23   11   38 1
    24   11   39 1
    25   12   13 1
    26   12   40 1
    27   12   41 1
    28   13   14 1
    29   13   16 am
    30   14   15 1
    31   14   42 1
    32   14   43 1
    33   15   44 1
    34   15   45 1
    35   16   17 2
    36   16   18 am
    37   18   19 1
    38   18   46 1
    39   19   24 1
    40   19   28 1
    41   19   20 1
    42   20   21 1
    43   20   47 1
    44   20   48 1
    45   21   27 1
    46   21   22 1
    47   21   49 1
    48   22   23 1
    49   22   50 1
    50   22   51 1
    51   23   24 1
    52   23   25 1
    53   23   52 1
    54   24   53 1
    55   24   54 1
    56   25   26 1
    57   25   55 1
    58   25   56 1
    59   26   27 1
    60   26   28 1
    61   26   57 1
    62   27   58 1
    63   27   59 1
    64   28   60 1
    65   28   61 1
@<TRIPOS>MOLECULE
ZINC67341483
   51    55     0     0     0
SMALL
USER_CHARGES

@<TRIPOS>ATOM
      1 C1         -0.0167    1.3767    0.0096 C.ar      1 <0>        -0.1685
      2 C2          1.1670    2.0963    0.0022 C.ar      1 <0>        -0.0575
      3 C3          2.3857    1.4432   -0.0127 C.ar      1 <0>        -0.1824
      4 C4          2.4196    0.0610   -0.0209 C.ar      1 <0>         0.2334
      5 C5          1.2210   -0.6723   -0.0151 C.ar      1 <0>        -0.1624
      6 C6          0.0021   -0.0041    0.0020 C.ar      1 <0>        -0.0409
      7 C7          1.3036   -2.1468   -0.0348 C.2       1 <0>         0.2250
      8 N1          2.4361   -2.7354    0.2326 N.2       1 <0>        -0.5336
      9 C8          3.6381   -1.9835    0.5901 C.3       1 <0>         0.3495
     10 N2          3.6153   -0.6533   -0.0333 N.pl3     1 <0>        -0.7622
     11 C9          4.8759   -2.7417    0.1025 C.3       1 <0>        -0.1031
     12 C10         4.9164   -4.1243    0.7561 C.3       1 <0>        -0.1086
     13 C11         4.9838   -3.9675    2.2765 C.3       1 <0>        -0.1190
     14 C12         3.7500   -3.2069    2.7660 C.3       1 <0>        -0.1108
     15 C13         3.7085   -1.8250    2.1108 C.3       1 <0>        -0.1246
     16 S1         -0.1231   -3.1072   -0.4179 S.3       1 <0>        -0.0486
     17 C14         0.4621   -4.8214   -0.3186 C.3       1 <0>        -0.0519
     18 C15        -0.6758   -5.7594   -0.6288 C.ar      1 <0>        -0.0770
     19 C16        -1.4908   -6.2164    0.3902 C.ar      1 <0>        -0.0932
     20 C17        -2.5345   -7.0777    0.1098 C.ar      1 <0>        -0.1122
     21 C18        -2.7672   -7.4859   -1.1952 C.ar      1 <0>         0.0584
     22 C19        -1.9495   -7.0246   -2.2198 C.ar      1 <0>         0.0509
     23 C20        -0.9063   -6.1570   -1.9321 C.ar      1 <0>        -0.0926
     24 O1         -2.1650   -7.4064   -3.5084 O.3       1 <0>        -0.3059
     25 C21        -2.9878   -8.5609   -3.7085 C.3       1 <0>         0.0200
     26 C22        -4.2297   -8.4264   -2.8170 C.3       1 <0>         0.0196
     27 O2         -3.7964   -8.3377   -1.4553 O.3       1 <0>        -0.3061
     28 H1         -0.9615    1.8996    0.0260 H         1 <0>         0.1270
     29 H2          1.1377    3.1759    0.0077 H         1 <0>         0.1271
     30 H3          3.3054    2.0093   -0.0175 H         1 <0>         0.1269
     31 H4         -0.9234   -0.5607    0.0096 H         1 <0>         0.1320
     32 H5          4.4122   -0.2823   -0.4432 H         1 <0>         0.4037
     33 H6          4.8305   -2.8531   -0.9809 H         1 <0>         0.0674
     34 H7          5.7731   -2.1852    0.3734 H         1 <0>         0.0708
     35 H8          4.0178   -4.6797    0.4875 H         1 <0>         0.0762
     36 H9          5.7959   -4.6655    0.4073 H         1 <0>         0.0629
     37 H10         5.0119   -4.9525    2.7424 H         1 <0>         0.0643
     38 H11         5.8828   -3.4128    2.5451 H         1 <0>         0.0593
     39 H12         2.8511   -3.7626    2.4991 H         1 <0>         0.0689
     40 H13         3.7988   -3.0940    3.8491 H         1 <0>         0.0614
     41 H14         4.6078   -1.2695    2.3770 H         1 <0>         0.0711
     42 H15         2.8298   -1.2831    2.4607 H         1 <0>         0.0603
     43 H16         1.2653   -4.9734   -1.0396 H         1 <0>         0.1018
     44 H17         0.8337   -5.0208    0.6866 H         1 <0>         0.1039
     45 H18        -1.3113   -5.8999    1.4071 H         1 <0>         0.1364
     46 H19        -3.1693   -7.4337    0.9077 H         1 <0>         0.1388
     47 H20        -0.2708   -5.7951   -2.7269 H         1 <0>         0.1375
     48 H21        -3.2905   -8.6197   -4.7540 H         1 <0>         0.1241
     49 H22        -2.4341   -9.4589   -3.4346 H         1 <0>         0.0788
     50 H23        -4.7802   -7.5252   -3.0869 H         1 <0>         0.0796
     51 H24        -4.8691   -9.3001   -2.9431 H         1 <0>         0.1242
@<TRIPOS>BOND
     1    1    6 ar
     2    1    2 ar
     3    1   28 1
     4    2    3 ar
     5    2   29 1
     6    3    4 ar
     7    3   30 1
     8    4   10 1
     9    4    5 ar
    10    5    6 ar
    11    5    7 1
    12    6   31 1
    13    7    8 2
    14    7   16 1
    15    8    9 1
    16    9   15 1
    17    9   10 1
    18    9   11 1
    19   10   32 1
    20   11   12 1
    21   11   33 1
    22   11   34 1
    23   12   13 1
    24   12   35 1
    25   12   36 1
    26   13   14 1
    27   13   37 1
    28   13   38 1
    29   14   15 1
    30   14   39 1
    31   14   40 1
    32   15   41 1
    33   15   42 1
    34   16   17 1
    35   17   18 1
    36   17   43 1
    37   17   44 1
    38   18   23 ar
    39   18   19 ar
    40   19   20 ar
    41   19   45 1
    42   20   21 ar
    43   20   46 1
    44   21   27 1
    45   21   22 ar
    46   22   23 ar
    47   22   24 1
    48   23   47 1
    49   24   25 1
    50   25   26 1
    51   25   48 1
    52   25   49 1
    53   26   27 1
    54   26   50 1
    55   26   51 1
@<TRIPOS>MOLECULE
ZINC13076649
   50    51     0     0     0
SMALL
USER_CHARGES
(E)-3-[3,4-dimethoxy-5-[[(1R,2S)-2-methylcyclohexyl]sulfamoyl]phenyl]prop-2-enoic acid
@<TRIPOS>ATOM
      1 C1         -1.3261   -5.1162    1.6962 C.3       1 <0>        -0.1491
      2 C2         -1.4198   -3.8314    2.5217 C.3       1 <0>        -0.0934
      3 H1         -2.4648   -3.6215    2.7499 H         1 <0>         0.0817
      4 C3         -0.6379   -4.0047    3.8254 C.3       1 <0>        -0.1152
      5 C4         -0.7316   -2.7199    4.6509 C.3       1 <0>        -0.1192
      6 C5         -0.1403   -1.5564    3.8524 C.3       1 <0>        -0.1219
      7 C6         -0.9222   -1.3831    2.5487 C.3       1 <0>        -0.1329
      8 C7         -0.8285   -2.6679    1.7232 C.3       1 <0>         0.1581
      9 H2         -1.3856   -2.5445    0.7944 H         1 <0>         0.1085
     10 N1          0.5760   -2.9500    1.4165 N.pl3     1 <0>        -1.1030
     11 S1          1.2265   -2.4478   -0.0212 S.o2      1 <0>         2.7025
     12 O1          0.3244   -2.8569   -1.0401 O.2       1 <0>        -0.9529
     13 O2          2.5916   -2.8423   -0.0091 O.2       1 <0>        -0.9600
     14 C8          1.2113   -0.6859   -0.0128 C.ar      1 <0>        -0.6590
     15 C9          2.3995    0.0115   -0.0204 C.ar      1 <0>        -0.0396
     16 C10         2.3890    1.4108   -0.0133 C.ar      1 <0>        -0.0140
     17 C11         1.1688    2.0975    0.0022 C.ar      1 <0>        -0.1482
     18 C12        -0.0168    1.3907    0.0097 C.ar      1 <0>         0.0991
     19 C13         0.0021   -0.0041    0.0020 C.ar      1 <0>         0.1473
     20 O3         -1.1659   -0.6971    0.0095 O.3       1 <0>        -0.3264
     21 C14        -1.7361   -1.0213   -1.2601 C.3       1 <0>         0.0125
     22 O4         -1.2038    2.0543    0.0189 O.3       1 <0>        -0.3049
     23 C15        -1.1487    3.4822    0.0264 C.3       1 <0>         0.0202
     24 C16         3.6548    2.1573   -0.0219 C.2       1 <0>        -0.1221
     25 C17         3.6423    3.5082   -0.0150 C.2       1 <0>        -0.1274
     26 C18         4.8635    4.2285   -0.0233 C.2       1 <0>         0.4675
     27 O5          5.9225    3.6300   -0.0366 O.co2     1 <0>        -0.6310
     28 H3         -0.2812   -5.3261    1.4680 H         1 <0>         0.0560
     29 H4         -1.7474   -5.9451    2.2651 H         1 <0>         0.0532
     30 H5         -1.8832   -4.9927    0.7675 H         1 <0>         0.0587
     31 H6          0.4071   -4.2145    3.5972 H         1 <0>         0.0615
     32 H7         -1.0592   -4.8336    4.3942 H         1 <0>         0.0623
     33 H8         -0.1746   -2.8433    5.5796 H         1 <0>         0.0591
     34 H9         -1.7766   -2.5100    4.8791 H         1 <0>         0.0609
     35 H10         0.9047   -1.7663    3.6241 H         1 <0>         0.0625
     36 H11        -0.2071   -0.6411    4.4404 H         1 <0>         0.0595
     37 H12        -0.5010   -0.5542    1.9798 H         1 <0>         0.0785
     38 H13        -1.9672   -1.1732    2.7769 H         1 <0>         0.0713
     39 H14         1.1248   -3.4309    2.0555 H         1 <0>         0.4156
     40 H15         3.3387   -0.5216   -0.0316 H         1 <0>         0.1520
     41 H16         1.1554    3.1774    0.0081 H         1 <0>         0.1460
     42 H17        -2.6640   -1.5734   -1.1113 H         1 <0>         0.0939
     43 H18        -1.9436   -0.1035   -1.8102 H         1 <0>         0.0446
     44 H19        -1.0355   -1.6342   -1.8272 H         1 <0>         0.0854
     45 H20        -0.6170    3.8207    0.9157 H         1 <0>         0.0593
     46 H21        -0.6254    3.8303   -0.8642 H         1 <0>         0.0585
     47 H22        -2.1616    3.8849    0.0334 H         1 <0>         0.1029
     48 H23         4.5950    1.6260   -0.0337 H         1 <0>         0.1382
     49 H24         2.7021    4.0395   -0.0031 H         1 <0>         0.1044
     50 O6          4.8510    5.5777   -0.0163 O.co2     1 <0>        -0.7613
@<TRIPOS>BOND
     1    1    2 1
     2    1   28 1
     3    1   29 1
     4    1   30 1
     5    2    3 1
     6    2    8 1
     7    2    4 1
     8    4    5 1
     9    4   31 1
    10    4   32 1
    11    5    6 1
    12    5   33 1
    13    5   34 1
    14    6    7 1
    15    6   35 1
    16    6   36 1
    17    7    8 1
    18    7   37 1
    19    7   38 1
    20    8    9 1
    21    8   10 1
    22   10   11 1
    23   10   39 1
    24   11   12 2
    25   11   13 2
    26   11   14 1
    27   14   19 ar
    28   14   15 ar
    29   15   16 ar
    30   15   40 1
    31   16   17 ar
    32   16   24 1
    33   17   18 ar
    34   17   41 1
    35   18   19 ar
    36   18   22 1
    37   19   20 1
    38   20   21 1
    39   21   42 1
    40   21   43 1
    41   21   44 1
    42   22   23 1
    43   23   45 1
    44   23   46 1
    45   23   47 1
    46   24   25 2
    47   24   48 1
    48   25   26 1
    49   25   49 1
    50   26   27 2
    51   26   50 1
@<TRIPOS>MOLECULE
ZINC20901005
   45    47     0     0     0
SMALL
USER_CHARGES
N-[4-[[5-(4-methoxyphenyl)-4-methyl-1,1-dioxo-isothiazol-3-yl]amino]phenyl]acetamide
@<TRIPOS>ATOM
      1 C1         -7.9348    4.6255   -0.8450 C.3       1 <0>        -0.1388
      2 C2         -6.6790    5.4405   -1.0184 C.2       1 <0>        -0.0048
      3 C3         -6.7005    6.7450   -1.3804 C.2       1 <0>        -0.6163
      4 S1         -4.9656    7.1461   -1.4200 S.o2      1 <0>         2.5154
      5 O1         -4.6084    7.3919   -2.7732 O.2       1 <0>        -0.9893
      6 O2         -4.7080    8.0601   -0.3629 O.2       1 <0>        -0.9866
      7 N1         -4.3218    5.6657   -0.9783 N.2       1 <0>        -0.9277
      8 C4         -5.3560    4.8887   -0.8111 C.2       1 <0>         0.3714
      9 N2         -5.1932    3.5683   -0.4383 N.2       1 <0>        -0.5890
     10 C5         -3.9076    3.0266   -0.3248 C.ar      1 <0>         0.1474
     11 C6         -2.8599    3.8147    0.1339 C.ar      1 <0>        -0.1254
     12 C7         -1.5919    3.2804    0.2454 C.ar      1 <0>        -0.1083
     13 C8         -1.3637    1.9553   -0.1017 C.ar      1 <0>         0.0865
     14 C9         -2.4101    1.1688   -0.5654 C.ar      1 <0>        -0.1350
     15 C10        -3.6793    1.7011   -0.6714 C.ar      1 <0>        -0.1275
     16 N3         -0.0766    1.4135    0.0106 N.am      1 <0>        -0.6787
     17 C11         0.7331    1.8027    1.0152 C.2       1 <0>         0.5020
     18 O3          0.3754    2.6738    1.7797 O.2       1 <0>        -0.5344
     19 C12         2.0830    1.1556    1.1888 C.3       1 <0>        -0.1725
     20 C13        -7.8576    7.6080   -1.6666 C.ar      1 <0>        -0.0019
     21 C14        -9.1552    7.0925   -1.5829 C.ar      1 <0>        -0.1112
     22 C15       -10.2350    7.9056   -1.8465 C.ar      1 <0>        -0.2031
     23 C16       -10.0366    9.2333   -2.2060 C.ar      1 <0>         0.1167
     24 C17        -8.7492    9.7487   -2.2957 C.ar      1 <0>        -0.1411
     25 C18        -7.6631    8.9451   -2.0289 C.ar      1 <0>        -0.0757
     26 O4        -11.1042   10.0294   -2.4709 O.3       1 <0>        -0.3184
     27 C19       -12.3994    9.4359   -2.3599 C.3       1 <0>         0.0244
     28 H1         -8.8122    5.2547   -1.0553 H         1 <0>         0.1004
     29 H2         -7.9901    4.2526    0.1884 H         1 <0>         0.0864
     30 H3         -7.9186    3.7743   -1.5416 H         1 <0>         0.0864
     31 H4         -3.0373    4.8452    0.4038 H         1 <0>         0.1426
     32 H5         -0.7772    3.8931    0.6021 H         1 <0>         0.1227
     33 H6         -2.2316    0.1394   -0.8391 H         1 <0>         0.1115
     34 H7         -4.4939    1.0882   -1.0281 H         1 <0>         0.1159
     35 H8          0.2731    0.6704   -0.7212 H         1 <0>         0.4231
     36 H9          2.5945    1.6011    2.0547 H         1 <0>         0.0907
     37 H10         2.6863    1.3174    0.2834 H         1 <0>         0.0865
     38 H11         1.9534    0.0760    1.3550 H         1 <0>         0.0863
     39 H12        -9.3102    6.0595   -1.3083 H         1 <0>         0.1696
     40 H13       -11.2375    7.5096   -1.7782 H         1 <0>         0.1290
     41 H14        -8.6001   10.7811   -2.5755 H         1 <0>         0.1341
     42 H15        -6.6629    9.3464   -2.0996 H         1 <0>         0.1267
     43 H16       -13.1680   10.1855   -2.5995 H         1 <0>         0.0984
     44 H17       -12.5494    9.0725   -1.3326 H         1 <0>         0.0556
     45 H18       -12.4778    8.5929   -3.0622 H         1 <0>         0.0555
@<TRIPOS>BOND
     1    1    2 1
     2    1   28 1
     3    1   29 1
     4    1   30 1
     5    2    8 1
     6    2    3 2
     7    3    4 1
     8    3   20 1
     9    4    5 2
    10    4    6 2
    11    4    7 1
    12    7    8 2
    13    8    9 1
    14    9   10 1
    15   10   15 ar
    16   10   11 ar
    17   11   12 ar
    18   11   31 1
    19   12   13 ar
    20   12   32 1
    21   13   14 ar
    22   13   16 1
    23   14   15 ar
    24   14   33 1
    25   15   34 1
    26   16   17 am
    27   16   35 1
    28   17   18 2
    29   17   19 1
    30   19   36 1
    31   19   37 1
    32   19   38 1
    33   20   25 ar
    34   20   21 ar
    35   21   22 ar
    36   21   39 1
    37   22   23 ar
    38   22   40 1
    39   23   24 ar
    40   23   26 1
    41   24   25 ar
    42   24   41 1
    43   25   42 1
    44   26   27 1
    45   27   43 1
    46   27   44 1
    47   27   45 1
@<TRIPOS>MOLECULE
ZINC40123640
   51    53     0     0     0
SMALL
USER_CHARGES

@<TRIPOS>ATOM
      1 C1         -4.2574   -3.2390    5.9015 C.3       1 <0>        -0.1507
      2 C2         -3.5357   -4.1025    4.8650 C.3       1 <0>         0.0525
      3 O1         -2.1230   -3.9690    5.0344 O.3       1 <0>        -0.3137
      4 C3         -1.3316   -4.6751    4.1880 C.ar      1 <0>         0.1413
      5 C4         -1.9064   -5.4776    3.2084 C.ar      1 <0>        -0.2221
      6 C5         -1.1073   -6.1951    2.3476 C.ar      1 <0>        -0.0288
      7 C6          0.2844   -6.1164    2.4591 C.ar      1 <0>        -0.1712
      8 C7          0.8582   -5.3085    3.4453 C.ar      1 <0>        -0.0363
      9 C8          0.0516   -4.5899    4.2989 C.ar      1 <0>        -0.1365
     10 C9          0.6689   -3.7142    5.3587 C.3       1 <0>        -0.0992
     11 C10         1.1453   -6.8846    1.5384 C.2       1 <0>         0.5089
     12 O2          2.3514   -6.8966    1.7006 O.2       1 <0>        -0.4784
     13 C11         0.5473   -7.6332    0.4284 C.2       1 <0>        -0.5128
     14 C12         0.5427   -8.9773    0.2712 C.2       1 <0>         0.2654
     15 C13        -0.1646   -9.3174   -0.9812 C.2       1 <0>         0.5111
     16 O3         -0.3362  -10.4445   -1.4011 O.2       1 <0>        -0.5409
     17 N1         -0.5904   -8.1943   -1.5875 N.am      1 <0>        -0.7156
     18 C14        -0.1883   -7.0531   -0.7570 C.3       1 <0>         0.2701
     19 H1         -1.0672   -6.5034   -0.4203 H         1 <0>         0.0709
     20 C15         0.7244   -6.1436   -1.5387 C.ar      1 <0>        -0.0655
     21 C16         2.0940   -6.2228   -1.3647 C.ar      1 <0>        -0.1049
     22 C17         2.9338   -5.3901   -2.0799 C.ar      1 <0>        -0.0913
     23 C18         2.4083   -4.4739   -2.9724 C.ar      1 <0>        -0.2007
     24 C19         1.0372   -4.3895   -3.1515 C.ar      1 <0>         0.0934
     25 C20         0.1918   -5.2323   -2.4357 C.ar      1 <0>         0.0674
     26 O4         -1.1546   -5.1570   -2.6121 O.3       1 <0>        -0.3235
     27 C21        -1.8536   -4.1661   -1.8561 C.3       1 <0>         0.0349
     28 O5          0.5188   -3.4890   -4.0288 O.3       1 <0>        -0.3115
     29 C22         1.4465   -2.6609   -4.7328 C.3       1 <0>         0.0275
     30 O6          1.0976   -9.8684    1.1249 O.3       1 <0>        -0.6529
     31 H2         -3.9724   -2.1955    5.7670 H         1 <0>         0.0645
     32 H3         -5.3350   -3.3408    5.7723 H         1 <0>         0.0762
     33 H4         -3.9792   -3.5653    6.9035 H         1 <0>         0.0651
     34 H5         -3.8207   -5.1459    4.9995 H         1 <0>         0.0625
     35 H6         -3.8139   -3.7761    3.8630 H         1 <0>         0.0616
     36 H7         -2.9814   -5.5381    3.1231 H         1 <0>         0.1273
     37 H8         -1.5545   -6.8184    1.5873 H         1 <0>         0.1364
     38 H9          1.9326   -5.2452    3.5350 H         1 <0>         0.1360
     39 H10         0.8139   -4.2942    6.2701 H         1 <0>         0.0644
     40 H11         1.6316   -3.3426    5.0076 H         1 <0>         0.0632
     41 H12         0.0078   -2.8725    5.5650 H         1 <0>         0.0658
     42 H13        -1.0803   -8.1475   -2.4234 H         1 <0>         0.4082
     43 H14         2.5083   -6.9366   -0.6680 H         1 <0>         0.1508
     44 H15         4.0029   -5.4550   -1.9412 H         1 <0>         0.1257
     45 H16         3.0667   -3.8240   -3.5296 H         1 <0>         0.1262
     46 H17        -1.5419   -3.1737   -2.1818 H         1 <0>         0.0437
     47 H18        -2.9263   -4.2796   -2.0124 H         1 <0>         0.0888
     48 H19        -1.6257   -4.2892   -0.7973 H         1 <0>         0.0458
     49 H20         2.0247   -2.0745   -4.0186 H         1 <0>         0.0521
     50 H21         2.1199   -3.2864   -5.3188 H         1 <0>         0.0531
     51 H22         0.9027   -1.9900   -5.3979 H         1 <0>         0.0957
@<TRIPOS>BOND
     1    1    2 1
     2    1   31 1
     3    1   32 1
     4    1   33 1
     5    2    3 1
     6    2   34 1
     7    2   35 1
     8    3    4 1
     9    4    9 ar
    10    4    5 ar
    11    5    6 ar
    12    5   36 1
    13    6    7 ar
    14    6   37 1
    15    7    8 ar
    16    7   11 1
    17    8    9 ar
    18    8   38 1
    19    9   10 1
    20   10   39 1
    21   10   40 1
    22   10   41 1
    23   11   12 2
    24   11   13 1
    25   13   18 1
    26   13   14 2
    27   14   15 1
    28   14   30 1
    29   15   16 2
    30   15   17 am
    31   17   18 1
    32   17   42 1
    33   18   19 1
    34   18   20 1
    35   20   25 ar
    36   20   21 ar
    37   21   22 ar
    38   21   43 1
    39   22   23 ar
    40   22   44 1
    41   23   24 ar
    42   23   45 1
    43   24   25 ar
    44   24   28 1
    45   25   26 1
    46   26   27 1
    47   27   46 1
    48   27   47 1
    49   27   48 1
    50   28   29 1
    51   29   49 1
    52   29   50 1
    53   29   51 1
@<TRIPOS>MOLECULE
ZINC50641920
   42    44     0     0     0
SMALL
USER_CHARGES

@<TRIPOS>ATOM
      1 C1         -4.1069    1.5910    1.4601 C.3       1 <0>         0.0304
      2 O1         -4.2259    0.1678    1.5078 O.3       1 <0>        -0.3155
      3 C2         -3.3341   -0.5507    0.7762 C.ar      1 <0>         0.1399
      4 C3         -2.3606    0.1017    0.0320 C.ar      1 <0>        -0.2434
      5 C4         -1.4535   -0.6274   -0.7128 C.ar      1 <0>        -0.0658
      6 C5         -1.5121   -2.0077   -0.7195 C.ar      1 <0>        -0.2009
      7 C6         -2.4837   -2.6661    0.0236 C.ar      1 <0>         0.2183
      8 C7         -3.3924   -1.9353    0.7771 C.ar      1 <0>        -0.1511
      9 N1         -2.5432   -4.0629    0.0170 N.pl3     1 <0>        -0.6761
     10 C8         -3.7468   -4.6949    0.1290 C.2       1 <0>         0.5428
     11 O2         -4.8866   -3.9764    0.1388 O.3       1 <0>        -0.6170
     12 C9         -3.7975   -6.0819    0.2331 C.2       1 <0>        -0.4405
     13 C10        -2.5861   -6.8455    0.2227 C.1       1 <0>         0.2964
     14 N2         -1.6251   -7.4512    0.2144 N.1       1 <0>        -0.5376
     15 C11        -5.0923   -6.7618    0.3535 C.2       1 <0>         0.4366
     16 O3         -6.1250   -6.1108    0.3624 O.2       1 <0>        -0.4857
     17 C12        -5.1438   -8.1697    0.4592 C.2       1 <0>        -0.1313
     18 C13        -6.3444   -8.8001    0.5709 C.2       1 <0>        -0.0714
     19 C14        -6.3957  -10.2047    0.6763 C.2       1 <0>        -0.0093
     20 C15        -5.7535  -11.1265   -0.1440 C.2       1 <0>         0.1275
     21 N3         -6.0548  -12.3416    0.2866 N.2       1 <0>        -0.4829
     22 C16        -6.8600  -12.2603    1.3448 C.2       1 <0>         0.2308
     23 N4         -7.0902  -10.9408    1.6200 N.pl3     1 <0>        -0.3463
     24 C17        -7.8832  -10.5779    2.6642 C.2       1 <0>         0.0680
     25 C18        -8.4568  -11.5157    3.4522 C.2       1 <0>        -0.1428
     26 C19        -8.2380  -12.8771    3.1991 C.2       1 <0>        -0.0981
     27 C20        -7.4511  -13.2498    2.1501 C.2       1 <0>        -0.0799
     28 Cl1        -4.7343  -10.7490   -1.4977 Cl        1 <0>         0.0171
     29 H1         -4.8771    2.0412    2.0863 H         1 <0>         0.0944
     30 H2         -3.1232    1.8859    1.8255 H         1 <0>         0.0510
     31 H3         -4.2297    1.9316    0.4319 H         1 <0>         0.0519
     32 H4         -2.3125    1.1806    0.0350 H         1 <0>         0.1198
     33 H5         -0.6974   -0.1172   -1.2911 H         1 <0>         0.1201
     34 H6         -0.8023   -2.5752   -1.3030 H         1 <0>         0.1198
     35 H7         -4.1461   -2.4447    1.3592 H         1 <0>         0.1516
     36 H8         -1.7285   -4.5826   -0.0672 H         1 <0>         0.4022
     37 H9         -4.2301   -8.7455    0.4513 H         1 <0>         0.1165
     38 H10        -7.2580   -8.2242    0.5788 H         1 <0>         0.1387
     39 H11        -8.0560   -9.5311    2.8661 H         1 <0>         0.1697
     40 H12        -9.0843  -11.2151    4.2782 H         1 <0>         0.1545
     41 H13        -8.6954  -13.6266    3.8280 H         1 <0>         0.1446
     42 H14        -7.2746  -14.2956    1.9460 H         1 <0>         0.1529
@<TRIPOS>BOND
     1    1    2 1
     2    1   29 1
     3    1   30 1
     4    1   31 1
     5    2    3 1
     6    3    8 ar
     7    3    4 ar
     8    4    5 ar
     9    4   32 1
    10    5    6 ar
    11    5   33 1
    12    6    7 ar
    13    6   34 1
    14    7    8 ar
    15    7    9 1
    16    8   35 1
    17    9   10 1
    18    9   36 1
    19   10   11 1
    20   10   12 2
    21   12   13 1
    22   12   15 1
    23   13   14 3
    24   15   16 2
    25   15   17 1
    26   17   18 2
    27   17   37 1
    28   18   19 1
    29   18   38 1
    30   19   23 1
    31   19   20 2
    32   20   21 1
    33   20   28 1
    34   21   22 2
    35   22   27 1
    36   22   23 1
    37   23   24 1
    38   24   25 2
    39   24   39 1
    40   25   26 1
    41   25   40 1
    42   26   27 2
    43   26   41 1
    44   27   42 1
@<TRIPOS>MOLECULE
ZINC40309803
   48    51     0     0     0
SMALL
USER_CHARGES

@<TRIPOS>ATOM
      1 C1         -0.0173    1.4248    0.0099 C.3       1 <0>         0.0256
      2 O1          0.0021   -0.0041    0.0020 O.3       1 <0>        -0.3085
      3 C2          0.6262   -0.6188    1.0422 C.ar      1 <0>         0.0983
      4 C3          1.2021    0.1367    2.0510 C.ar      1 <0>        -0.1663
      5 C4          1.8358   -0.4897    3.1079 C.ar      1 <0>        -0.0942
      6 C5          1.8971   -1.8699    3.1612 C.ar      1 <0>        -0.0767
      7 C6          1.3251   -2.6295    2.1578 C.ar      1 <0>        -0.1661
      8 C7          0.6830   -2.0080    1.0988 C.ar      1 <0>         0.0949
      9 O2          0.1145   -2.7540    0.1140 O.3       1 <0>        -0.3065
     10 C8          0.2115   -4.1743    0.2380 C.3       1 <0>         0.0254
     11 C9          2.5896   -2.5476    4.3154 C.3       1 <0>         0.0423
     12 H1          2.5404   -3.6294    4.1914 H         1 <0>         0.0955
     13 C10         4.0535   -2.0986    4.3783 C.3       1 <0>        -0.0833
     14 C11         4.1863   -0.7280    4.9745 C.2       1 <0>         0.3060
     15 N1          3.3891   -0.2720    5.8940 N.2       1 <0>        -0.4704
     16 C12         2.3552   -1.0607    6.3200 C.2       1 <0>         0.0730
     17 C13         1.9276   -2.1511    5.6128 C.2       1 <0>        -0.0555
     18 N2          0.8918   -2.7254    6.2751 N.pl3     1 <0>        -0.3791
     19 C14         0.6224   -2.0450    7.4109 C.2       1 <0>         0.0163
     20 C15         1.5072   -0.9800    7.5081 C.2       1 <0>        -0.1559
     21 C16         1.5771    0.0183    8.5791 C.2       1 <0>         0.5448
     22 O3          0.7965   -0.0382    9.5204 O.co2     1 <0>        -0.7032
     23 O4          2.4160    0.9086    8.5321 O.co2     1 <0>        -0.6728
     24 C17         0.1988   -3.8635    5.8418 C.ar      1 <0>         0.1327
     25 C18        -0.2786   -3.9336    4.5399 C.ar      1 <0>        -0.1284
     26 C19        -0.9609   -5.0571    4.1156 C.ar      1 <0>        -0.1070
     27 C20        -1.1691   -6.1111    4.9861 C.ar      1 <0>        -0.1254
     28 C21        -0.6948   -6.0443    6.2833 C.ar      1 <0>        -0.1030
     29 C22        -0.0068   -4.9260    6.7118 C.ar      1 <0>        -0.1197
     30 O5          5.1825    0.0699    4.5348 O.3       1 <0>        -0.4773
     31 H2          1.0053    1.8021    0.0021 H         1 <0>         0.0550
     32 H3         -0.5445    1.7859   -0.8732 H         1 <0>         0.0986
     33 H4         -0.5275    1.7763    0.9067 H         1 <0>         0.0556
     34 H5          1.1562    1.2150    2.0113 H         1 <0>         0.1360
     35 H6          2.2842    0.1003    3.8935 H         1 <0>         0.1349
     36 H7          1.3747   -3.7075    2.2017 H         1 <0>         0.1351
     37 H8          1.2614   -4.4664    0.2576 H         1 <0>         0.0541
     38 H9         -0.2714   -4.4922    1.1620 H         1 <0>         0.0531
     39 H10        -0.2815   -4.6476   -0.6111 H         1 <0>         0.0984
     40 H11         4.6171   -2.8069    4.9856 H         1 <0>         0.0986
     41 H12         4.4665   -2.0893    3.3696 H         1 <0>         0.1000
     42 H13        -0.1515   -2.2892    8.1235 H         1 <0>         0.1734
     43 H14        -0.1169   -3.1104    3.8597 H         1 <0>         0.1351
     44 H15        -1.3325   -5.1122    3.1030 H         1 <0>         0.1251
     45 H16        -1.7035   -6.9883    4.6522 H         1 <0>         0.1250
     46 H17        -0.8590   -6.8691    6.9609 H         1 <0>         0.1292
     47 H18         0.3672   -4.8762    7.7237 H         1 <0>         0.1322
     48 H19         5.2091    0.9373    4.9613 H         1 <0>         0.4052
@<TRIPOS>BOND
     1    1    2 1
     2    1   31 1
     3    1   32 1
     4    1   33 1
     5    2    3 1
     6    3    8 ar
     7    3    4 ar
     8    4    5 ar
     9    4   34 1
    10    5    6 ar
    11    5   35 1
    12    6    7 ar
    13    6   11 1
    14    7    8 ar
    15    7   36 1
    16    8    9 1
    17    9   10 1
    18   10   37 1
    19   10   38 1
    20   10   39 1
    21   11   12 1
    22   11   17 1
    23   11   13 1
    24   13   14 1
    25   13   40 1
    26   13   41 1
    27   14   15 2
    28   14   30 1
    29   15   16 1
    30   16   20 1
    31   16   17 2
    32   17   18 1
    33   18   19 1
    34   18   24 1
    35   19   20 2
    36   19   42 1
    37   20   21 1
    38   21   22 2
    39   21   23 1
    40   24   29 ar
    41   24   25 ar
    42   25   26 ar
    43   25   43 1
    44   26   27 ar
    45   26   44 1
    46   27   28 ar
    47   27   45 1
    48   28   29 ar
    49   28   46 1
    50   29   47 1
    51   30   48 1
@<TRIPOS>MOLECULE
ZINC08648552
   51    52     0     0     0
SMALL
USER_CHARGES
2-[(4-methoxyphenyl)thiocarbamoylaminocarbamoylmethylsulfanyl]-N-[4-(trifluoromethoxy)phenyl]-acetamide
@<TRIPOS>ATOM
      1 C1         -4.9251    4.5891    0.3036 C.3       1 <0>         0.0253
      2 O1         -4.1959    4.4172   -0.9133 O.3       1 <0>        -0.3139
      3 C2         -3.1099    3.6000   -0.8721 C.ar      1 <0>         0.1412
      4 C3         -2.3571    3.3891   -2.0179 C.ar      1 <0>        -0.1443
      5 C4         -1.2541    2.5593   -1.9768 C.ar      1 <0>        -0.0269
      6 C5         -0.8984    1.9363   -0.7880 C.ar      1 <0>         0.0746
      7 C6         -1.6552    2.1440    0.3574 C.ar      1 <0>        -0.0757
      8 C7         -2.7551    2.9779    0.3160 C.ar      1 <0>        -0.2062
      9 N1          0.2203    1.0939   -0.7457 N.pl3     1 <0>        -0.6259
     10 C8          1.3779    1.4817   -1.3165 C.2       1 <0>         0.5532
     11 S1          1.4553    2.9603   -2.1761 S.2       1 <0>        -0.5595
     12 N2          2.4746    0.7056   -1.2108 N.pl3     1 <0>        -0.4632
     13 N3          2.4113   -0.5044   -0.5074 N.am      1 <0>        -0.5485
     14 C9          3.5081   -1.2806   -0.4016 C.2       1 <0>         0.5400
     15 O2          4.5498   -0.9316   -0.9154 O.2       1 <0>        -0.4900
     16 C10         3.4400   -2.5821    0.3550 C.3       1 <0>        -0.1467
     17 S2          5.0643   -3.3889    0.3178 S.3       1 <0>        -0.0792
     18 C11         4.8157   -4.9196    1.2588 C.3       1 <0>        -0.1528
     19 C12         6.1066   -5.6958    1.3056 C.2       1 <0>         0.5331
     20 O3          7.0969   -5.2593    0.7580 O.2       1 <0>        -0.4907
     21 N4          6.1606   -6.8750    1.9559 N.am      1 <0>        -0.6692
     22 C13         7.3888   -7.5292    2.1195 C.ar      1 <0>         0.1294
     23 C14         7.4459   -8.9162    2.0927 C.ar      1 <0>        -0.1003
     24 C15         8.6575   -9.5601    2.2487 C.ar      1 <0>        -0.1695
     25 C16         9.8157   -8.8219    2.4436 C.ar      1 <0>         0.0930
     26 C17         9.7585   -7.4362    2.4757 C.ar      1 <0>        -0.1002
     27 C18         8.5485   -6.7909    2.3141 C.ar      1 <0>        -0.0819
     28 O4         11.0075   -9.4567    2.6028 O.3       1 <0>        -0.3088
     29 C19        10.9928  -10.8850    2.5587 C.3       1 <0>         0.6039
     30 F1         10.5041  -11.3082    1.3180 F         1 <0>        -0.1645
     31 F2         12.2924  -11.3705    2.7384 F         1 <0>        -0.1294
     32 F3         10.1672  -11.3744    3.5766 F         1 <0>        -0.1651
     33 H1         -5.7645    5.2630    0.1321 H         1 <0>         0.1022
     34 H2         -5.2984    3.6229    0.6430 H         1 <0>         0.0565
     35 H3         -4.2687    5.0124    1.0638 H         1 <0>         0.0572
     36 H4         -2.6339    3.8737   -2.9425 H         1 <0>         0.1391
     37 H5         -0.6681    2.3952   -2.8690 H         1 <0>         0.1542
     38 H6         -1.3817    1.6562    1.2813 H         1 <0>         0.1266
     39 H7         -3.3415    3.1428    1.2078 H         1 <0>         0.1342
     40 H8          0.1605    0.2298   -0.3089 H         1 <0>         0.3988
     41 H9          3.3078    0.9847   -1.6217 H         1 <0>         0.4623
     42 H10         1.5782   -0.7836   -0.0965 H         1 <0>         0.4211
     43 H11         3.1548   -2.3869    1.3887 H         1 <0>         0.1219
     44 H12         2.6999   -3.2339   -0.1092 H         1 <0>         0.1220
     45 H13         4.5016   -4.6753    2.2736 H         1 <0>         0.1192
     46 H14         4.0466   -5.5223    0.7756 H         1 <0>         0.1179
     47 H15         5.3493   -7.2709    2.3108 H         1 <0>         0.4144
     48 H16         6.5436   -9.4912    1.9458 H         1 <0>         0.1383
     49 H17         8.7028  -10.6389    2.2232 H         1 <0>         0.1392
     50 H18        10.6606   -6.8620    2.6274 H         1 <0>         0.1456
     51 H19         8.5042   -5.7120    2.3387 H         1 <0>         0.1479
@<TRIPOS>BOND
     1    1    2 1
     2    1   33 1
     3    1   34 1
     4    1   35 1
     5    2    3 1
     6    3    8 ar
     7    3    4 ar
     8    4    5 ar
     9    4   36 1
    10    5    6 ar
    11    5   37 1
    12    6    7 ar
    13    6    9 1
    14    7    8 ar
    15    7   38 1
    16    8   39 1
    17    9   10 1
    18    9   40 1
    19   10   11 2
    20   10   12 1
    21   12   13 1
    22   12   41 1
    23   13   14 am
    24   13   42 1
    25   14   15 2
    26   14   16 1
    27   16   17 1
    28   16   43 1
    29   16   44 1
    30   17   18 1
    31   18   19 1
    32   18   45 1
    33   18   46 1
    34   19   20 2
    35   19   21 am
    36   21   22 1
    37   21   47 1
    38   22   27 ar
    39   22   23 ar
    40   23   24 ar
    41   23   48 1
    42   24   25 ar
    43   24   49 1
    44   25   26 ar
    45   25   28 1
    46   26   27 ar
    47   26   50 1
    48   27   51 1
    49   28   29 1
    50   29   30 1
    51   29   31 1
    52   29   32 1
@<TRIPOS>MOLECULE
ZINC16562369
   71    72     0     0     0
SMALL
USER_CHARGES
N-(6-amino-1-isobutyl-2,4-dioxo-pyrimidin-5-yl)-N-butyl-2-[(4-ethoxyphenyl)methyl-methyl-amino]acetamide
@<TRIPOS>ATOM
      1 C1          0.6203    5.4942    3.2160 C.3       1 <0>        -0.1551
      2 C2          0.7499    5.1418    1.7328 C.3       1 <0>        -0.1238
      3 C3          0.8612    3.6238    1.5771 C.3       1 <0>        -0.1385
      4 C4          0.9909    3.2714    0.0939 C.3       1 <0>         0.0952
      5 N1          1.0974    1.8179   -0.0552 N.am      1 <0>        -0.4862
      6 C5          2.3608    1.1930    0.0081 C.2       1 <0>        -0.1774
      7 C6          2.6478    0.2905    1.0116 C.2       1 <0>         0.5169
      8 N2          3.8885   -0.3025    1.0468 N.am      1 <0>        -0.5336
      9 C7          4.8114   -0.0061    0.1138 C.2       1 <0>         0.7092
     10 O1          5.9025   -0.5407    0.1626 O.2       1 <0>        -0.5122
     11 N3          4.5495    0.8709   -0.8715 N.am      1 <0>        -0.6619
     12 H1          5.2545    1.0770   -1.5501 H         1 <0>         0.4452
     13 C8          3.3480    1.4751   -0.9547 C.2       1 <0>         0.5734
     14 O2          3.1192    2.2648   -1.8553 O.2       1 <0>        -0.5214
     15 C9          4.2067   -1.2629    2.1064 C.3       1 <0>         0.1028
     16 C10         3.8271   -2.6724    1.6479 C.3       1 <0>        -0.1122
     17 C11         4.7029   -3.0754    0.4599 C.3       1 <0>        -0.1457
     18 C12         4.0427   -3.6581    2.7981 C.3       1 <0>        -0.1486
     19 N4          1.7054   -0.0121    1.9650 N.pl3     1 <0>        -0.8245
     20 C13        -0.0128    1.0768   -0.2530 C.2       1 <0>         0.4868
     21 O3          0.0823   -0.1149   -0.4596 O.2       1 <0>        -0.5158
     22 C14        -1.3703    1.7306   -0.2235 C.3       1 <0>        -0.0289
     23 C15        -2.4636   -0.2551    0.6276 C.3       1 <0>        -0.0567
     24 C16        -3.7163    1.3484   -0.6847 C.3       1 <0>         0.0547
     25 C17        -4.6968    0.3138   -1.1739 C.ar      1 <0>        -0.2089
     26 C18        -4.8460    0.0913   -2.5303 C.ar      1 <0>        -0.0459
     27 C19        -5.7401   -0.8605   -2.9811 C.ar      1 <0>        -0.2096
     28 C20        -6.4968   -1.5854   -2.0718 C.ar      1 <0>         0.1733
     29 C21        -6.3493   -1.3562   -0.7115 C.ar      1 <0>        -0.1521
     30 C22        -5.4498   -0.4073   -0.2657 C.ar      1 <0>        -0.0510
     31 O4         -7.3807   -2.5186   -2.5129 O.3       1 <0>        -0.3064
     32 C23        -7.4799   -2.7012   -3.9267 C.3       1 <0>         0.0512
     33 C24        -8.5172   -3.7843   -4.2296 C.3       1 <0>        -0.1568
     34 H2          0.5410    6.5757    3.3269 H         1 <0>         0.0615
     35 H3         -0.2721    5.0206    3.6253 H         1 <0>         0.0530
     36 H4          1.4995    5.1374    3.7524 H         1 <0>         0.0560
     37 H5          1.6423    5.6154    1.3234 H         1 <0>         0.0710
     38 H6         -0.1293    5.4986    1.1963 H         1 <0>         0.0663
     39 H7         -0.0312    3.1502    1.9864 H         1 <0>         0.0589
     40 H8          1.7404    3.2670    2.1135 H         1 <0>         0.0739
     41 H9          1.8832    3.7450   -0.3154 H         1 <0>         0.1056
     42 H10         0.1116    3.6282   -0.4426 H         1 <0>         0.0856
     43 H11         5.2747   -1.2260    2.3214 H         1 <0>         0.1188
     44 H12         3.6459   -1.0102    3.0062 H         1 <0>         0.0942
     45 H13         2.7792   -2.6871    1.3483 H         1 <0>         0.0725
     46 H14         4.4325   -4.0796    0.1333 H         1 <0>         0.0596
     47 H15         4.5494   -2.3732   -0.3595 H         1 <0>         0.0480
     48 H16         5.7508   -3.0607    0.7595 H         1 <0>         0.0696
     49 H17         3.4187   -3.3710    3.6444 H         1 <0>         0.0582
     50 H18         3.7722   -4.6622    2.4715 H         1 <0>         0.0680
     51 H19         5.0906   -3.6434    3.0977 H         1 <0>         0.0659
     52 H20         0.8749    0.4878    2.0019 H         1 <0>         0.4151
     53 H21         1.8706   -0.7255    2.6011 H         1 <0>         0.4142
     54 H22        -1.5329    2.1862    0.7532 H         1 <0>         0.1614
     55 H23        -1.4207    2.4983   -0.9956 H         1 <0>         0.1611
     56 H24        -2.6943    0.2611    1.5595 H         1 <0>         0.1204
     57 H25        -3.2388   -0.9925    0.4191 H         1 <0>         0.1253
     58 H26        -1.5002   -0.7567    0.7189 H         1 <0>         0.1330
     59 H27        -4.0734    1.7724    0.2538 H         1 <0>         0.1389
     60 H28        -3.6219    2.1398   -1.4283 H         1 <0>         0.1352
     61 H29        -4.2599    0.6589   -3.2379 H         1 <0>         0.1342
     62 H30        -5.8531   -1.0371   -4.0405 H         1 <0>         0.1405
     63 H31        -6.9375   -1.9189   -0.0018 H         1 <0>         0.1438
     64 H32        -5.3344   -0.2287    0.7932 H         1 <0>         0.1380
     65 H33        -7.7854   -1.7648   -4.3935 H         1 <0>         0.0688
     66 H34        -6.5109   -3.0053   -4.3227 H         1 <0>         0.0680
     67 H35        -8.2117   -4.7207   -3.7629 H         1 <0>         0.0700
     68 H36        -9.4862   -3.4802   -3.8337 H         1 <0>         0.0706
     69 H37        -8.5929   -3.9235   -5.3080 H         1 <0>         0.0858
     70 N5         -2.3994    0.7048   -0.4945 N.4       1 <0>        -0.3821
     71 H38        -2.1484    0.1990   -1.3521 H         1 <0>         0.4357
@<TRIPOS>BOND
     1    1    2 1
     2    1   34 1
     3    1   35 1
     4    1   36 1
     5    2    3 1
     6    2   37 1
     7    2   38 1
     8    3    4 1
     9    3   39 1
    10    3   40 1
    11    4    5 1
    12    4   41 1
    13    4   42 1
    14    5    6 1
    15    5   20 am
    16    6   13 1
    17    6    7 2
    18    7    8 1
    19    7   19 1
    20    8    9 am
    21    8   15 1
    22    9   10 2
    23    9   11 am
    24   11   12 1
    25   11   13 am
    26   13   14 2
    27   15   16 1
    28   15   43 1
    29   15   44 1
    30   16   17 1
    31   16   18 1
    32   16   45 1
    33   17   46 1
    34   17   47 1
    35   17   48 1
    36   18   49 1
    37   18   50 1
    38   18   51 1
    39   19   52 1
    40   19   53 1
    41   20   21 2
    42   20   22 1
    43   22   54 1
    44   22   55 1
    45   22   70 1
    46   23   56 1
    47   23   57 1
    48   23   58 1
    49   23   70 1
    50   24   25 1
    51   24   59 1
    52   24   60 1
    53   24   70 1
    54   25   30 ar
    55   25   26 ar
    56   26   27 ar
    57   26   61 1
    58   27   28 ar
    59   27   62 1
    60   28   29 ar
    61   28   31 1
    62   29   30 ar
    63   29   63 1
    64   30   64 1
    65   31   32 1
    66   32   33 1
    67   32   65 1
    68   32   66 1
    69   33   67 1
    70   33   68 1
    71   33   69 1
    72   70   71 1
@<TRIPOS>MOLECULE
ZINC22051184
   71    75     0     0     0
SMALL
USER_CHARGES
(2S)-1-[2-(5-benzyloxy-2-methoxy-phenoxy)ethylamino]-3-(9H-carbazol-4-yloxy)propan-2-ol
@<TRIPOS>ATOM
      1 C1          0.9301   13.6506   -4.5603 C.3       1 <0>         0.0210
      2 O1          0.1995   13.4842   -3.3436 O.3       1 <0>        -0.3112
      3 C2          0.4816   14.3478   -2.3305 C.ar      1 <0>         0.0722
      4 C3          1.4373   15.3350   -2.5073 C.ar      1 <0>        -0.1270
      5 C4          1.7285   16.2090   -1.4768 C.ar      1 <0>        -0.1922
      6 C5          1.0611   16.1030   -0.2655 C.ar      1 <0>         0.1397
      7 C6          0.1004   15.1193   -0.0862 C.ar      1 <0>        -0.2028
      8 C7         -0.1926   14.2425   -1.1180 C.ar      1 <0>         0.1259
      9 O2         -1.1341   13.2767   -0.9441 O.3       1 <0>        -0.3120
     10 C8         -1.7819   13.2238    0.3285 C.3       1 <0>         0.0215
     11 C9         -2.8006   12.0823    0.3352 C.3       1 <0>         0.0071
     12 N1         -2.0987   10.7987    0.2027 N.4       1 <0>        -0.5369
     13 C10        -3.0474    9.6772    0.2053 C.3       1 <0>         0.0067
     14 C11        -2.2808    8.3604    0.0660 C.3       1 <0>         0.0983
     15 H1         -1.5302    8.2496    0.8624 H         1 <0>         0.0878
     16 C12        -3.2690    7.1923    0.0686 C.3       1 <0>         0.0259
     17 O3         -2.5480    5.9585    0.0558 O.3       1 <0>        -0.3096
     18 C13        -3.2820    4.8153    0.0564 C.ar      1 <0>         0.1811
     19 C14        -4.6646    4.8767    0.0685 C.ar      1 <0>        -0.2447
     20 C15        -5.4133    3.7113    0.0703 C.ar      1 <0>        -0.0447
     21 C16        -4.7947    2.4791    0.0589 C.ar      1 <0>        -0.1719
     22 C17        -3.4054    2.3943    0.0457 C.ar      1 <0>         0.1764
     23 C18        -2.6447    3.5722    0.0443 C.ar      1 <0>        -0.1351
     24 C19        -1.2303    3.1574    0.0294 C.ar      1 <0>        -0.0951
     25 C20        -0.0259    3.8573    0.0216 C.ar      1 <0>        -0.0628
     26 C21         1.1670    3.1672    0.0075 C.ar      1 <0>        -0.1487
     27 C22         1.1718    1.7807    0.0004 C.ar      1 <0>        -0.0836
     28 C23        -0.0126    1.0758    0.0080 C.ar      1 <0>        -0.1385
     29 C24        -1.2272    1.7547    0.0174 C.ar      1 <0>         0.1474
     30 N2         -2.5394    1.3156    0.0327 N.pl3     1 <0>        -0.6244
     31 H2         -2.9379    0.2903    0.0355 H         1 <0>         0.4498
     32 O4         -1.5493    8.3627   -1.1616 O.3       1 <0>        -0.6066
     33 O5          1.3493   16.9640    0.7468 O.3       1 <0>        -0.3055
     34 C25         2.3495   17.9525    0.4927 C.3       1 <0>         0.1007
     35 C26         2.5323   18.8088    1.7192 C.ar      1 <0>        -0.1039
     36 C27         1.7771   19.9553    1.8806 C.ar      1 <0>        -0.0950
     37 C28         1.9411   20.7379    3.0082 C.ar      1 <0>        -0.1216
     38 C29         2.8681   20.3800    3.9692 C.ar      1 <0>        -0.1048
     39 C30         3.6274   19.2365    3.8050 C.ar      1 <0>        -0.1221
     40 C31         3.4593   18.4508    2.6802 C.ar      1 <0>        -0.0955
     41 H3          0.6061   12.8931   -5.2891 H         1 <0>         0.1060
     42 H4          2.0054   13.5318   -4.3614 H         1 <0>         0.0585
     43 H5          0.7412   14.6551   -4.9670 H         1 <0>         0.0589
     44 H6          1.9583   15.4190   -3.4495 H         1 <0>         0.1444
     45 H7          2.4765   16.9757   -1.6150 H         1 <0>         0.1389
     46 H8         -0.4192   15.0369    0.8570 H         1 <0>         0.1431
     47 H9         -1.0322   13.0508    1.1146 H         1 <0>         0.0885
     48 H10        -2.2978   14.1768    0.5172 H         1 <0>         0.1109
     49 H11        -3.3619   12.0973    1.2811 H         1 <0>         0.1487
     50 H12        -3.4974   12.2077   -0.5066 H         1 <0>         0.1411
     51 H13        -1.5374   10.7837   -0.7432 H         1 <0>         0.4702
     52 H14        -3.6105    9.6755    1.1502 H         1 <0>         0.1439
     53 H15        -3.7459    9.7858   -0.6375 H         1 <0>         0.1393
     54 H16        -3.8938    7.2426    0.9726 H         1 <0>         0.0793
     55 H17        -3.9096    7.2520   -0.8236 H         1 <0>         0.0836
     56 H18        -5.1611    5.8357    0.0769 H         1 <0>         0.1280
     57 H19        -6.4918    3.7683    0.0805 H         1 <0>         0.1345
     58 H20        -5.3895    1.5776    0.0604 H         1 <0>         0.1301
     59 H21        -0.0268    4.9373    0.0271 H         1 <0>         0.1217
     60 H22         2.1016    3.7084    0.0015 H         1 <0>         0.1269
     61 H23         2.1115    1.2485   -0.0114 H         1 <0>         0.1313
     62 H24         0.0021   -0.0041    0.0020 H         1 <0>         0.1266
     63 H25        -0.9339    7.4935   -1.4368 H         1 <0>         0.4501
     64 H26         3.3002   17.4572    0.2462 H         1 <0>         0.0758
     65 H27         2.0352   18.5836   -0.3517 H         1 <0>         0.0761
     66 H28         1.0560   20.2373    1.1277 H         1 <0>         0.1242
     67 H29         1.3476   21.6311    3.1366 H         1 <0>         0.1278
     68 H30         2.9989   20.9934    4.8483 H         1 <0>         0.1273
     69 H31         4.3516   18.9569    4.5558 H         1 <0>         0.1275
     70 H32         4.0526   17.5575    2.5519 H         1 <0>         0.1237
     71 H33        -1.4019   10.6732    1.0445 H         1 <0>         0.4478
@<TRIPOS>BOND
     1    1    2 1
     2    1   41 1
     3    1   42 1
     4    1   43 1
     5    2    3 1
     6    3    8 ar
     7    3    4 ar
     8    4    5 ar
     9    4   44 1
    10    5    6 ar
    11    5   45 1
    12    6    7 ar
    13    6   33 1
    14    7    8 ar
    15    7   46 1
    16    8    9 1
    17    9   10 1
    18   10   11 1
    19   10   47 1
    20   10   48 1
    21   11   12 1
    22   11   49 1
    23   11   50 1
    24   12   13 1
    25   12   51 1
    26   12   71 1
    27   13   14 1
    28   13   52 1
    29   13   53 1
    30   14   15 1
    31   14   16 1
    32   14   32 1
    33   16   17 1
    34   16   54 1
    35   16   55 1
    36   17   18 1
    37   18   23 ar
    38   18   19 ar
    39   19   20 ar
    40   19   56 1
    41   20   21 ar
    42   20   57 1
    43   21   22 ar
    44   21   58 1
    45   22   30 1
    46   22   23 ar
    47   23   24 1
    48   24   29 ar
    49   24   25 ar
    50   25   26 ar
    51   25   59 1
    52   26   27 ar
    53   26   60 1
    54   27   28 ar
    55   27   61 1
    56   28   29 ar
    57   28   62 1
    58   29   30 1
    59   30   31 1
    60   32   63 1
    61   33   34 1
    62   34   35 1
    63   34   64 1
    64   34   65 1
    65   35   40 ar
    66   35   36 ar
    67   36   37 ar
    68   36   66 1
    69   37   38 ar
    70   37   67 1
    71   38   39 ar
    72   38   68 1
    73   39   40 ar
    74   39   69 1
    75   40   70 1
@<TRIPOS>MOLECULE
ZINC38807035
   89    88     0     0     0
SMALL
USER_CHARGES

@<TRIPOS>ATOM
      1 C1          1.2142    0.2139   -1.9859 C.3       1 <0>        -0.1651
      2 C2          2.3556    0.6956   -2.8837 C.3       1 <0>        -0.1060
      3 C3          2.6229   -0.3462   -3.9719 C.3       1 <0>        -0.1738
      4 C4          1.9664    2.0245   -3.5345 C.3       1 <0>        -0.0078
      5 H1          1.7092    2.7468   -2.7598 H         1 <0>         0.1688
      6 C5          3.1261    2.5465   -4.3430 C.2       1 <0>         0.5111
      7 O1          3.0008    2.7286   -5.5355 O.2       1 <0>        -0.5223
      8 N1          4.3025    2.8110   -3.7409 N.am      1 <0>        -0.6899
      9 C6          5.4299    3.3185   -4.5268 C.3       1 <0>         0.1671
     10 C7          5.0408    4.6473   -5.1776 C.3       1 <0>        -0.1679
     11 C8          6.6354    3.5335   -3.6095 C.3       1 <0>        -0.1626
     12 C9          5.7910    2.3045   -5.6142 C.3       1 <0>        -0.1674
     13 N2          0.8090    1.8180   -4.4153 N.4       1 <0>        -0.4796
     14 C10         0.3247    3.1173   -4.9002 C.3       1 <0>         0.0245
     15 H2          1.1368    3.6437   -5.4017 H         1 <0>         0.1908
     16 C11        -0.8256    2.8977   -5.8848 C.3       1 <0>        -0.1373
     17 C12        -0.3029    2.1718   -7.1260 C.3       1 <0>        -0.1284
     18 C13        -1.4532    1.9522   -8.1107 C.3       1 <0>        -0.1476
     19 C14        -0.9305    1.2262   -9.3519 C.3       1 <0>         0.1112
     20 N3         -2.0319    1.0159  -10.2947 N.am      1 <0>        -0.6048
     21 C15        -2.2569    1.9705  -11.3830 C.3       1 <0>         0.1409
     22 H3         -1.5538    2.7984  -11.2913 H         1 <0>         0.1025
     23 C16        -3.6880    2.5058  -11.3041 C.3       1 <0>        -0.1099
     24 C17        -3.9017    3.1934   -9.9541 C.3       1 <0>        -0.1397
     25 C18        -3.9184    3.5137  -12.4319 C.3       1 <0>        -0.1578
     26 C19        -2.0508    1.2807  -12.7069 C.2       1 <0>         0.5044
     27 O2         -2.1081    0.0712  -12.7759 O.2       1 <0>        -0.5015
     28 N4         -1.8029    2.0079  -13.8142 N.am      1 <0>        -0.7265
     29 C20        -1.4911    1.3351  -15.0777 C.3       1 <0>         0.1701
     30 C21        -2.6626    0.4370  -15.4799 C.3       1 <0>        -0.1655
     31 C22        -1.2534    2.3821  -16.1678 C.3       1 <0>        -0.1569
     32 C23        -0.2317    0.4838  -14.9049 C.3       1 <0>        -0.1605
     33 C24        -2.8382   -0.0557  -10.1609 C.2       1 <0>         0.5159
     34 O3         -3.7055   -0.2683  -10.9815 O.2       1 <0>        -0.5012
     35 C25        -2.6620   -0.9899   -8.9915 C.3       1 <0>        -0.1734
     36 C26        -0.1620    3.9389   -3.7343 C.2       1 <0>         0.4563
     37 O4         -0.3233    3.4201   -2.6551 O.2       1 <0>        -0.4888
     38 O5         -0.4161    5.2471   -3.8948 O.3       1 <0>        -0.3242
     39 C27        -0.9801    5.9400   -2.7795 C.3       1 <0>         0.0281
     40 H4          1.0513    0.9363   -1.1861 H         1 <0>         0.0807
     41 H5          0.3038    0.1150   -2.5771 H         1 <0>         0.0533
     42 H6          1.4743   -0.7529   -1.5548 H         1 <0>         0.0915
     43 H7          3.2554    0.8342   -2.2845 H         1 <0>         0.1236
     44 H8          1.7491   -0.4291   -4.6181 H         1 <0>         0.0523
     45 H9          3.4851   -0.0398   -4.5642 H         1 <0>         0.0757
     46 H10         2.8250   -1.3119   -3.5086 H         1 <0>         0.0952
     47 H11         4.4028    2.6653   -2.7871 H         1 <0>         0.4089
     48 H12         4.7835    5.3697   -4.4030 H         1 <0>         0.0584
     49 H13         5.8796    5.0249   -5.7624 H         1 <0>         0.0761
     50 H14         4.1820    4.4941   -5.8312 H         1 <0>         0.0765
     51 H15         6.9126    2.5868   -3.1459 H         1 <0>         0.0678
     52 H16         7.4742    3.9111   -4.1943 H         1 <0>         0.0854
     53 H17         6.3781    4.2559   -2.8348 H         1 <0>         0.0671
     54 H18         4.9322    2.1513   -6.2678 H         1 <0>         0.0776
     55 H19         6.6298    2.6821   -6.1990 H         1 <0>         0.0753
     56 H20         6.0682    1.3578   -5.1506 H         1 <0>         0.0593
     57 H21         1.0818    1.2463   -5.2007 H         1 <0>         0.4402
     58 H22        -1.5999    2.2948   -5.4104 H         1 <0>         0.0978
     59 H23        -1.2432    3.8614   -6.1764 H         1 <0>         0.1288
     60 H24         0.4714    2.7747   -7.6005 H         1 <0>         0.0935
     61 H25         0.1147    1.2081   -6.8344 H         1 <0>         0.0615
     62 H26        -2.2274    1.3492   -7.6362 H         1 <0>         0.0753
     63 H27        -1.8708    2.9158   -8.4023 H         1 <0>         0.0848
     64 H28        -0.1562    1.8291   -9.8263 H         1 <0>         0.0829
     65 H29        -0.5128    0.2625   -9.0603 H         1 <0>         0.0824
     66 H30        -4.3912    1.6793  -11.4062 H         1 <0>         0.1016
     67 H31        -3.1364    3.9560   -9.8096 H         1 <0>         0.0530
     68 H32        -4.8869    3.6593   -9.9355 H         1 <0>         0.0606
     69 H33        -3.8339    2.4548   -9.1554 H         1 <0>         0.0539
     70 H34        -3.8727    3.0007  -13.3926 H         1 <0>         0.0639
     71 H35        -4.8989    3.9747  -12.3125 H         1 <0>         0.0670
     72 H36        -3.1478    4.2837  -12.3941 H         1 <0>         0.0565
     73 H37        -1.8309    2.9767  -13.7746 H         1 <0>         0.3968
     74 H38        -3.5599    1.0435  -15.6030 H         1 <0>         0.0531
     75 H39        -2.4306   -0.0636  -16.4200 H         1 <0>         0.0618
     76 H40        -2.8320   -0.3089  -14.7033 H         1 <0>         0.0817
     77 H41        -0.4188    3.0219  -15.8813 H         1 <0>         0.0611
     78 H42        -1.0214    1.8815  -17.1079 H         1 <0>         0.0754
     79 H43        -2.1507    2.9886  -16.2909 H         1 <0>         0.0627
     80 H44        -0.4010   -0.2621  -14.1283 H         1 <0>         0.0719
     81 H45         0.0003   -0.0168  -15.8450 H         1 <0>         0.0651
     82 H46         0.6030    1.1236  -14.6184 H         1 <0>         0.0521
     83 H47        -3.2063   -0.6012   -8.1308 H         1 <0>         0.0880
     84 H48        -3.0494   -1.9749   -9.2518 H         1 <0>         0.0935
     85 H49        -1.6029   -1.0691   -8.7461 H         1 <0>         0.0777
     86 H50        -1.8916    5.4344   -2.4608 H         1 <0>         0.0751
     87 H51        -0.2638    5.9499   -1.9579 H         1 <0>         0.0734
     88 H52        -1.2150    6.9643   -3.0691 H         1 <0>         0.1214
     89 H53         0.0739    1.3554   -3.9018 H         1 <0>         0.4356
@<TRIPOS>BOND
     1    1    2 1
     2    1   40 1
     3    1   41 1
     4    1   42 1
     5    2    3 1
     6    2    4 1
     7    2   43 1
     8    3   44 1
     9    3   45 1
    10    3   46 1
    11    4    5 1
    12    4    6 1
    13    4   13 1
    14    6    7 2
    15    6    8 am
    16    8    9 1
    17    8   47 1
    18    9   10 1
    19    9   11 1
    20    9   12 1
    21   10   48 1
    22   10   49 1
    23   10   50 1
    24   11   51 1
    25   11   52 1
    26   11   53 1
    27   12   54 1
    28   12   55 1
    29   12   56 1
    30   13   14 1
    31   13   57 1
    32   13   89 1
    33   14   15 1
    34   14   16 1
    35   14   36 1
    36   16   17 1
    37   16   58 1
    38   16   59 1
    39   17   18 1
    40   17   60 1
    41   17   61 1
    42   18   19 1
    43   18   62 1
    44   18   63 1
    45   19   20 1
    46   19   64 1
    47   19   65 1
    48   20   21 1
    49   20   33 am
    50   21   22 1
    51   21   23 1
    52   21   26 1
    53   23   24 1
    54   23   25 1
    55   23   66 1
    56   24   67 1
    57   24   68 1
    58   24   69 1
    59   25   70 1
    60   25   71 1
    61   25   72 1
    62   26   27 2
    63   26   28 am
    64   28   29 1
    65   28   73 1
    66   29   30 1
    67   29   31 1
    68   29   32 1
    69   30   74 1
    70   30   75 1
    71   30   76 1
    72   31   77 1
    73   31   78 1
    74   31   79 1
    75   32   80 1
    76   32   81 1
    77   32   82 1
    78   33   34 2
    79   33   35 1
    80   35   83 1
    81   35   84 1
    82   35   85 1
    83   36   37 2
    84   36   38 1
    85   38   39 1
    86   39   86 1
    87   39   87 1
    88   39   88 1
@<TRIPOS>MOLECULE
ZINC64569380
   59    60     0     0     0
SMALL
USER_CHARGES

@<TRIPOS>ATOM
      1 C1          7.0641    1.0610    7.3803 C.3       1 <0>        -0.1561
      2 C2          6.9897   -0.3363    6.7615 C.3       1 <0>         0.0613
      3 O1          5.6303   -0.6472    6.4493 O.3       1 <0>        -0.3452
      4 C3          5.3911   -1.8463    5.8956 C.2       1 <0>         0.4699
      5 O2          6.3056   -2.6068    5.6830 O.2       1 <0>        -0.4966
      6 C4          3.9819   -2.2440    5.5390 C.3       1 <0>        -0.1419
      7 C5          3.9870   -3.6468    4.9282 C.3       1 <0>        -0.0070
      8 N1          2.6133   -4.0345    4.5807 N.4       1 <0>        -0.3748
      9 C6          2.1084   -3.1511    3.5211 C.3       1 <0>         0.0185
     10 C7          0.6288   -3.4493    3.2705 C.3       1 <0>        -0.2136
     11 C8          0.2448   -4.0205    1.9041 C.3       1 <0>        -0.1645
     12 C9         -0.1061   -2.5730    2.2542 C.3       1 <0>        -0.1484
     13 C10         2.6021   -5.4246    4.1059 C.3       1 <0>        -0.0344
     14 C11         2.9395   -6.3482    5.2479 C.2       1 <0>         0.4313
     15 O3          3.1975   -5.8907    6.3431 O.2       1 <0>        -0.5118
     16 C12         2.9557   -7.7447    5.0449 C.2       1 <0>        -0.4656
     17 C13         3.1526   -8.6314    6.1177 C.2       1 <0>         0.5834
     18 N2          3.1598   -9.9748    5.8714 N.am      1 <0>        -0.5342
     19 C14         2.9837  -10.4577    4.6316 C.2       1 <0>         0.7123
     20 O4          2.9985  -11.6616    4.4648 O.2       1 <0>        -0.4964
     21 N3          2.7914   -9.6599    3.5687 N.am      1 <0>        -0.6571
     22 H1          2.6685  -10.0535    2.6907 H         1 <0>         0.4420
     23 C15         2.7612   -8.3183    3.7070 C.2       1 <0>         0.5892
     24 O5          2.5815   -7.5981    2.7424 O.2       1 <0>        -0.5157
     25 C16         3.3642  -10.9072    6.9827 C.3       1 <0>         0.0921
     26 C17         2.0108  -11.2800    7.5912 C.3       1 <0>        -0.1126
     27 C18         1.1841  -12.0527    6.5614 C.3       1 <0>        -0.1474
     28 C19         2.2309  -12.1537    8.8278 C.3       1 <0>        -0.1497
     29 N4          3.3335   -8.1591    7.3807 N.pl3     1 <0>        -0.7800
     30 H2          6.4669    1.0870    8.2917 H         1 <0>         0.0696
     31 H3          8.1010    1.2981    7.6184 H         1 <0>         0.0870
     32 H4          6.6775    1.7933    6.6715 H         1 <0>         0.0697
     33 H5          7.5869   -0.3624    5.8501 H         1 <0>         0.0739
     34 H6          7.3763   -1.0686    7.4703 H         1 <0>         0.0737
     35 H7          3.3652   -2.2413    6.4378 H         1 <0>         0.1307
     36 H8          3.5758   -1.5351    4.8175 H         1 <0>         0.1273
     37 H9          4.6037   -3.6495    4.0295 H         1 <0>         0.1383
     38 H10         4.3931   -4.3558    5.6497 H         1 <0>         0.1536
     39 H11         2.2225   -2.1119    3.8295 H         1 <0>         0.1362
     40 H12         2.6738   -3.3225    2.6051 H         1 <0>         0.1345
     41 H13         0.0656   -3.7951    4.1373 H         1 <0>         0.1247
     42 H14         1.0463   -4.1838    1.1837 H         1 <0>         0.1085
     43 H15        -0.5711   -4.7424    1.8717 H         1 <0>         0.1098
     44 H16        -1.1530   -2.3427    2.4521 H         1 <0>         0.1117
     45 H17         0.4644   -1.7841    1.7641 H         1 <0>         0.1076
     46 H18         1.6121   -5.6692    3.7212 H         1 <0>         0.1688
     47 H19         3.3399   -5.5435    3.3124 H         1 <0>         0.1682
     48 H20         3.8579  -11.8071    6.6159 H         1 <0>         0.1252
     49 H21         3.9868  -10.4355    7.7430 H         1 <0>         0.0981
     50 H22         1.4788  -10.3727    7.8774 H         1 <0>         0.0743
     51 H23         0.2200  -12.3183    6.9949 H         1 <0>         0.0632
     52 H24         1.0273  -11.4303    5.6805 H         1 <0>         0.0463
     53 H25         1.7162  -12.9600    6.2753 H         1 <0>         0.0715
     54 H26         2.8199  -11.6033    9.5614 H         1 <0>         0.0605
     55 H27         1.2667  -12.4193    9.2613 H         1 <0>         0.0708
     56 H28         2.7629  -13.0610    8.5416 H         1 <0>         0.0671
     57 H29         3.2140   -7.2148    7.5672 H         1 <0>         0.4412
     58 H30         3.5821   -8.7668    8.0948 H         1 <0>         0.4155
     59 H31         2.0243   -3.9527    5.3958 H         1 <0>         0.4255
@<TRIPOS>BOND
     1    1    2 1
     2    1   30 1
     3    1   31 1
     4    1   32 1
     5    2    3 1
     6    2   33 1
     7    2   34 1
     8    3    4 1
     9    4    5 2
    10    4    6 1
    11    6    7 1
    12    6   35 1
    13    6   36 1
    14    7    8 1
    15    7   37 1
    16    7   38 1
    17    8    9 1
    18    8   13 1
    19    8   59 1
    20    9   10 1
    21    9   39 1
    22    9   40 1
    23   10   12 1
    24   10   11 1
    25   10   41 1
    26   11   12 1
    27   11   42 1
    28   11   43 1
    29   12   44 1
    30   12   45 1
    31   13   14 1
    32   13   46 1
    33   13   47 1
    34   14   15 2
    35   14   16 1
    36   16   23 1
    37   16   17 2
    38   17   18 1
    39   17   29 1
    40   18   19 am
    41   18   25 1
    42   19   20 2
    43   19   21 am
    44   21   22 1
    45   21   23 am
    46   23   24 2
    47   25   26 1
    48   25   48 1
    49   25   49 1
    50   26   27 1
    51   26   28 1
    52   26   50 1
    53   27   51 1
    54   27   52 1
    55   27   53 1
    56   28   54 1
    57   28   55 1
    58   28   56 1
    59   29   57 1
    60   29   58 1
@<TRIPOS>MOLECULE
ZINC11466380
   58    59     0     0     0
SMALL
USER_CHARGES
N-(6-amino-2,4-dioxo-1-propyl-pyrimidin-5-yl)-N-butyl-2-[(5-propyl-4H-1,2,4-triazol-3-yl)sulfanyl]acetamide
@<TRIPOS>ATOM
      1 C1          3.2487   -6.5737    2.6369 C.3       1 <0>        -0.1533
      2 C2          1.7787   -6.1862    2.4646 C.3       1 <0>        -0.1216
      3 C3          1.6448   -4.6626    2.5049 C.3       1 <0>        -0.1369
      4 C4          0.1748   -4.2750    2.3327 C.3       1 <0>         0.0986
      5 N1          0.0466   -2.8162    2.3713 N.am      1 <0>        -0.5211
      6 C5          0.0379   -2.0767    1.1696 C.2       1 <0>        -0.1446
      7 C6         -1.0044   -2.2045    0.2744 C.2       1 <0>         0.4860
      8 N2         -0.9843   -1.4707   -0.8888 N.am      1 <0>        -0.5382
      9 C7          0.0422   -0.6422   -1.1534 C.2       1 <0>         0.7123
     10 O1          0.0438   -0.0059   -2.1896 O.2       1 <0>        -0.5327
     11 N3          1.0638   -0.5007   -0.2903 N.am      1 <0>        -0.6631
     12 H1          1.8106    0.1281   -0.5071 H         1 <0>         0.4398
     13 C8          1.0926   -1.1965    0.8632 C.2       1 <0>         0.5685
     14 O2          2.0260   -1.0641    1.6366 O.2       1 <0>        -0.5067
     15 C9         -2.0843   -1.5964   -1.8481 C.3       1 <0>         0.1034
     16 C10        -3.1687   -0.5687   -1.5183 C.3       1 <0>        -0.1447
     17 C11        -4.3176   -0.7001   -2.5202 C.3       1 <0>        -0.1500
     18 N4         -2.0505   -3.0546    0.5422 N.pl3     1 <0>        -0.8319
     19 C12        -0.0632   -2.1796    3.5559 C.2       1 <0>         0.5388
     20 O3         -0.0774   -0.9670    3.5940 O.2       1 <0>        -0.4973
     21 C13        -0.1682   -2.9748    4.8317 C.3       1 <0>        -0.1421
     22 S1         -0.3020   -1.8437    6.2384 S.3       1 <0>         0.0828
     23 C14        -0.4075   -3.0071    7.5576 C.2       1 <0>         0.1417
     24 N5         -0.5268   -2.7188    8.8868 N.pl3     1 <0>        -0.5691
     25 H2         -0.5700   -1.8393    9.2937 H         1 <0>         0.4325
     26 C15        -0.5730   -3.9273    9.5253 C.2       1 <0>         0.1940
     27 N6         -0.4849   -4.8522    8.6118 N.2       1 <0>        -0.2786
     28 N7         -0.3919   -4.3153    7.4478 N.2       1 <0>        -0.2910
     29 C16        -0.7018   -4.1483   11.0104 C.3       1 <0>        -0.0332
     30 C17        -1.9051   -5.0513   11.2892 C.3       1 <0>        -0.1167
     31 C18        -2.0359   -5.2757   12.7969 C.3       1 <0>        -0.1534
     32 H3          3.6126   -6.2022    3.5948 H         1 <0>         0.0553
     33 H4          3.3441   -7.6592    2.6082 H         1 <0>         0.0556
     34 H5          3.8368   -6.1359    1.8303 H         1 <0>         0.0537
     35 H6          1.1906   -6.6240    3.2712 H         1 <0>         0.0663
     36 H7          1.4148   -6.5577    1.5067 H         1 <0>         0.0621
     37 H8          2.2329   -4.2247    1.6983 H         1 <0>         0.0714
     38 H9          2.0087   -4.2911    3.4629 H         1 <0>         0.0682
     39 H10        -0.4133   -4.7129    3.1393 H         1 <0>         0.0882
     40 H11        -0.1891   -4.6466    1.3747 H         1 <0>         0.0825
     41 H12        -1.7096   -1.4184   -2.8561 H         1 <0>         0.1138
     42 H13        -2.5050   -2.6002   -1.7890 H         1 <0>         0.0925
     43 H14        -3.5435   -0.7468   -0.5103 H         1 <0>         0.0678
     44 H15        -2.7480    0.4351   -1.5774 H         1 <0>         0.0777
     45 H16        -4.7383   -1.7039   -2.4610 H         1 <0>         0.0582
     46 H17        -5.0901    0.0320   -2.2852 H         1 <0>         0.0651
     47 H18        -3.9428   -0.5221   -3.5281 H         1 <0>         0.0627
     48 H19        -2.8151   -3.0856   -0.0539 H         1 <0>         0.4095
     49 H20        -2.0243   -3.6237    1.3273 H         1 <0>         0.4240
     50 H21        -1.0524   -3.6110    4.7916 H         1 <0>         0.1271
     51 H22         0.7206   -3.5951    4.9475 H         1 <0>         0.1294
     52 H23         0.2040   -4.6234   11.3870 H         1 <0>         0.0988
     53 H24        -0.8437   -3.1897   11.5095 H         1 <0>         0.0836
     54 H25        -2.8109   -4.5761   10.9126 H         1 <0>         0.0629
     55 H26        -1.7633   -6.0099   10.7901 H         1 <0>         0.0778
     56 H27        -2.8931   -5.9190   12.9955 H         1 <0>         0.0603
     57 H28        -1.1301   -5.7508   13.1735 H         1 <0>         0.0586
     58 H29        -2.1777   -4.3171   13.2960 H         1 <0>         0.0550
@<TRIPOS>BOND
     1    1    2 1
     2    1   32 1
     3    1   33 1
     4    1   34 1
     5    2    3 1
     6    2   35 1
     7    2   36 1
     8    3    4 1
     9    3   37 1
    10    3   38 1
    11    4    5 1
    12    4   39 1
    13    4   40 1
    14    5    6 1
    15    5   19 am
    16    6   13 1
    17    6    7 2
    18    7    8 1
    19    7   18 1
    20    8    9 am
    21    8   15 1
    22    9   10 2
    23    9   11 am
    24   11   12 1
    25   11   13 am
    26   13   14 2
    27   15   16 1
    28   15   41 1
    29   15   42 1
    30   16   17 1
    31   16   43 1
    32   16   44 1
    33   17   45 1
    34   17   46 1
    35   17   47 1
    36   18   48 1
    37   18   49 1
    38   19   20 2
    39   19   21 1
    40   21   22 1
    41   21   50 1
    42   21   51 1
    43   22   23 1
    44   23   28 2
    45   23   24 1
    46   24   25 1
    47   24   26 1
    48   26   27 2
    49   26   29 1
    50   27   28 1
    51   29   30 1
    52   29   52 1
    53   29   53 1
    54   30   31 1
    55   30   54 1
    56   30   55 1
    57   31   56 1
    58   31   57 1
    59   31   58 1
@<TRIPOS>MOLECULE
ZINC02794356
   63    65     0     0     0
SMALL
USER_CHARGES
3-[[(5R,7S)-5-(3,4-dimethylphenyl)-7-(trifluoromethyl)4,5,6,7-tetrahydropyrazolo[1,5-a]pyrimidine-2-carbonyl]amino]-1-(3-ethoxypropyl)thiourea
@<TRIPOS>ATOM
      1 C1         -4.9277   -9.8479    0.3755 C.3       1 <0>        -0.1546
      2 C2         -3.8912  -10.0508   -0.7315 C.3       1 <0>         0.0563
      3 O1         -3.1468   -8.8448   -0.9139 O.3       1 <0>        -0.3903
      4 C3         -2.1464   -8.9275   -1.9310 C.3       1 <0>         0.0658
      5 C4         -1.4163   -7.5872   -2.0385 C.3       1 <0>        -0.1346
      6 C5         -0.3453   -7.6758   -3.1274 C.3       1 <0>         0.1284
      7 N1          0.3538   -6.3924   -3.2303 N.pl3     1 <0>        -0.6939
      8 C6          1.3451   -6.2352   -4.1298 C.2       1 <0>         0.5692
      9 S1          1.7874   -7.5353   -5.1522 S.2       1 <0>        -0.6071
     10 N2          1.9882   -5.0546   -4.2245 N.pl3     1 <0>        -0.4791
     11 N3          1.6262   -3.9907   -3.3879 N.am      1 <0>        -0.5456
     12 C7          2.2693   -2.8100   -3.4825 C.2       1 <0>         0.6148
     13 O2          3.1635   -2.6683   -4.2939 O.2       1 <0>        -0.5094
     14 C8          1.8877   -1.6882   -2.6004 C.2       1 <0>         0.0730
     15 C9          2.4747   -0.4026   -2.5926 C.2       1 <0>        -0.2649
     16 C10         1.8474    0.3255   -1.6480 C.2       1 <0>         0.3814
     17 N4          0.8909   -0.4605   -1.0703 N.pl3     1 <0>        -0.3936
     18 N5          0.9378   -1.7125   -1.6820 N.2       1 <0>        -0.2623
     19 C11         0.0021   -0.0041    0.0020 C.3       1 <0>         0.1281
     20 H1          0.3971   -0.3991    0.9496 H         1 <0>         0.1375
     21 C12        -0.0187    1.5286    0.0104 C.3       1 <0>        -0.1491
     22 C13         1.4150    2.0702   -0.0003 C.3       1 <0>         0.2009
     23 H2          1.9999    1.6781    0.8448 H         1 <0>         0.0878
     24 N6          2.0664    1.6493   -1.2565 N.pl3     1 <0>        -0.7361
     25 C14         1.3882    3.5750    0.0763 C.ar      1 <0>        -0.1060
     26 C15         1.1424    4.3209   -1.0616 C.ar      1 <0>        -0.1065
     27 C16         1.1139    5.7009   -0.9906 C.ar      1 <0>        -0.1139
     28 C17         1.3398    6.3358    0.2167 C.ar      1 <0>        -0.0739
     29 C18         1.5902    5.5903    1.3533 C.ar      1 <0>        -0.0817
     30 C19         1.6149    4.2097    1.2830 C.ar      1 <0>        -0.0984
     31 C20         1.8369    6.2823    2.6691 C.3       1 <0>        -0.1199
     32 C21         1.3134    7.8406    0.2932 C.3       1 <0>        -0.1270
     33 C22        -1.4119   -0.5344   -0.2438 C.3       1 <0>         0.4568
     34 F1         -1.8765   -0.0687   -1.4785 F         1 <0>        -0.1718
     35 F2         -1.3905   -1.9332   -0.2511 F         1 <0>        -0.1626
     36 F3         -2.2614   -0.0863    0.7734 F         1 <0>        -0.1706
     37 H3         -5.5007  -10.7763    0.5159 H         1 <0>         0.0732
     38 H4         -5.6116   -9.0341    0.0927 H         1 <0>         0.0635
     39 H5         -4.4159   -9.5875    1.3137 H         1 <0>         0.0634
     40 H6         -3.2073  -10.8646   -0.4487 H         1 <0>         0.0506
     41 H7         -4.4029  -10.3113   -1.6697 H         1 <0>         0.0506
     42 H8         -1.4260   -9.7178   -1.6733 H         1 <0>         0.0564
     43 H9         -2.6216   -9.1645   -2.8943 H         1 <0>         0.0564
     44 H10        -2.1367   -6.7969   -2.2962 H         1 <0>         0.0801
     45 H11        -0.9411   -7.3502   -1.0752 H         1 <0>         0.0800
     46 H12         0.3751   -8.4661   -2.8697 H         1 <0>         0.0922
     47 H13        -0.8205   -7.9128   -4.0907 H         1 <0>         0.0921
     48 H14         0.0696   -5.5571   -2.5734 H         1 <0>         0.4088
     49 H15         2.7973   -4.9263   -4.9586 H         1 <0>         0.4903
     50 H16         0.8171   -4.1190   -2.6538 H         1 <0>         0.4465
     51 H17         3.2802   -0.0652   -3.2279 H         1 <0>         0.1644
     52 H18        -0.5507    1.8929   -0.8808 H         1 <0>         0.1025
     53 H19        -0.5337    1.8834    0.9154 H         1 <0>         0.1225
     54 H20         2.6807    2.3640   -1.8238 H         1 <0>         0.4523
     55 H21         0.9696    3.8251   -2.0054 H         1 <0>         0.1249
     56 H22         0.9185    6.2834   -1.8788 H         1 <0>         0.1257
     57 H23         1.8110    3.6272    2.1710 H         1 <0>         0.1257
     58 H24         2.0159    5.5298    3.4512 H         1 <0>         0.0671
     59 H25         0.9574    6.8867    2.9361 H         1 <0>         0.0731
     60 H26         2.7175    6.9355    2.5804 H         1 <0>         0.0731
     61 H27         1.5131    8.1587    1.3271 H         1 <0>         0.0720
     62 H28         0.3238    8.2062   -0.0183 H         1 <0>         0.0728
     63 H29         2.0840    8.2552   -0.3734 H         1 <0>         0.0730
@<TRIPOS>BOND
     1    1    2 1
     2    1   37 1
     3    1   38 1
     4    1   39 1
     5    2    3 1
     6    2   40 1
     7    2   41 1
     8    3    4 1
     9    4    5 1
    10    4   42 1
    11    4   43 1
    12    5    6 1
    13    5   44 1
    14    5   45 1
    15    6    7 1
    16    6   46 1
    17    6   47 1
    18    7    8 1
    19    7   48 1
    20    8    9 2
    21    8   10 1
    22   10   11 1
    23   10   49 1
    24   11   12 am
    25   11   50 1
    26   12   13 2
    27   12   14 1
    28   14   18 2
    29   14   15 1
    30   15   16 2
    31   15   51 1
    32   16   24 1
    33   16   17 1
    34   17   18 1
    35   17   19 1
    36   19   20 1
    37   19   21 1
    38   19   33 1
    39   21   22 1
    40   21   52 1
    41   21   53 1
    42   22   23 1
    43   22   24 1
    44   22   25 1
    45   24   54 1
    46   25   30 ar
    47   25   26 ar
    48   26   27 ar
    49   26   55 1
    50   27   28 ar
    51   27   56 1
    52   28   29 ar
    53   28   32 1
    54   29   30 ar
    55   29   31 1
    56   30   57 1
    57   31   58 1
    58   31   59 1
    59   31   60 1
    60   32   61 1
    61   32   62 1
    62   32   63 1
    63   33   34 1
    64   33   35 1
    65   33   36 1
@<TRIPOS>MOLECULE
ZINC26849594
   47    47     0     0     0
SMALL
USER_CHARGES
N-[(1S)-2-(N'-(3-methoxypropylcarbamothioyl)hydrazino)-1-methyl-2-oxo-ethyl]-3-nitro-benzamide
@<TRIPOS>ATOM
      1 C1          0.9487    7.9786    1.4704 C.3       1 <0>        -0.1652
      2 C2          1.0679    7.4776    0.0297 C.3       1 <0>         0.1412
      3 H1          0.2066    7.8007   -0.5734 H         1 <0>         0.1263
      4 C3          2.3430    8.0004   -0.5801 C.2       1 <0>         0.5233
      5 O1          3.1854    7.2257   -0.9815 O.2       1 <0>        -0.5230
      6 N1          2.5472    9.3289   -0.6794 N.am      1 <0>        -0.5509
      7 N2          3.7326    9.8149   -1.2463 N.pl3     1 <0>        -0.4825
      8 C4          3.9368   11.1434   -1.3456 C.2       1 <0>         0.5667
      9 S1          5.3854   11.7374   -2.0384 S.2       1 <0>        -0.5997
     10 N3          3.0007   12.0044   -0.8996 N.pl3     1 <0>        -0.6928
     11 C5          3.2227   13.4484   -1.0075 C.3       1 <0>         0.1271
     12 C6          2.0169   14.1942   -0.4325 C.3       1 <0>        -0.1345
     13 C7          2.2487   15.7023   -0.5452 C.3       1 <0>         0.0629
     14 O2          1.1225   16.3988   -0.0081 O.3       1 <0>        -0.3927
     15 C8          1.2380   17.8220   -0.0651 C.3       1 <0>         0.0284
     16 N4          1.0877    6.0127    0.0221 N.am      1 <0>        -0.7225
     17 C9         -0.0702    5.3230    0.0294 C.2       1 <0>         0.5709
     18 O3         -1.1309    5.9164    0.0424 O.2       1 <0>        -0.5230
     19 C10        -0.0501    3.8447    0.0218 C.ar      1 <0>        -0.1317
     20 C11         1.1664    3.1602    0.0070 C.ar      1 <0>        -0.0355
     21 C12         1.1781    1.7809    0.0004 C.ar      1 <0>        -0.1188
     22 C13        -0.0126    1.0758    0.0080 C.ar      1 <0>        -0.0289
     23 C14        -1.2216    1.7481    0.0173 C.ar      1 <0>        -0.0494
     24 C15        -1.2473    3.1276    0.0299 C.ar      1 <0>         0.0025
     25 N5         -2.4903    0.9858    0.0197 N.pl3     1 <0>         0.0248
     26 O4         -2.4692   -0.2320    0.0134 O.2       1 <0>        -0.1504
     27 O5         -3.5556    1.5763    0.0280 O.3       1 <0>        -0.1490
     28 H2          0.0180    7.5970    1.9155 H         1 <0>         0.0851
     29 H3          0.9338    9.0785    1.4760 H         1 <0>         0.0733
     30 H4          1.8087    7.6205    2.0554 H         1 <0>         0.0719
     31 H5          1.7832   10.0316   -0.3154 H         1 <0>         0.4413
     32 H6          4.4966    9.1122   -1.6103 H         1 <0>         0.4898
     33 H7          2.0700   11.6228   -0.4546 H         1 <0>         0.4059
     34 H8          4.1266   13.7235   -0.4443 H         1 <0>         0.0929
     35 H9          3.3524   13.7214   -2.0651 H         1 <0>         0.0928
     36 H10         1.1130   13.9191   -0.9957 H         1 <0>         0.0803
     37 H11         1.8872   13.9212    0.6252 H         1 <0>         0.0801
     38 H12         3.1527   15.9774    0.0180 H         1 <0>         0.0572
     39 H13         2.3784   15.9753   -1.6029 H         1 <0>         0.0572
     40 H14         0.3356   18.2806    0.3654 H         1 <0>         0.0898
     41 H15         1.3465   18.1394   -1.1127 H         1 <0>         0.0447
     42 H16         2.1208   18.1415    0.5081 H         1 <0>         0.0447
     43 H17         2.0476    5.4757    0.0104 H         1 <0>         0.4337
     44 H18         2.0964    3.7094    0.0010 H         1 <0>         0.1479
     45 H19         2.1186    1.2501   -0.0111 H         1 <0>         0.1584
     46 H20         0.0021   -0.0041    0.0020 H         1 <0>         0.1617
     47 H21        -2.1918    3.6512    0.0413 H         1 <0>         0.1679
@<TRIPOS>BOND
     1    1    2 1
     2    1   28 1
     3    1   29 1
     4    1   30 1
     5    2    3 1
     6    2    4 1
     7    2   16 1
     8    4    5 2
     9    4    6 am
    10    6    7 1
    11    6   31 1
    12    7    8 1
    13    7   32 1
    14    8    9 2
    15    8   10 1
    16   10   11 1
    17   10   33 1
    18   11   12 1
    19   11   34 1
    20   11   35 1
    21   12   13 1
    22   12   36 1
    23   12   37 1
    24   13   14 1
    25   13   38 1
    26   13   39 1
    27   14   15 1
    28   15   40 1
    29   15   41 1
    30   15   42 1
    31   16   17 am
    32   16   43 1
    33   17   18 2
    34   17   19 1
    35   19   24 ar
    36   19   20 ar
    37   20   21 ar
    38   20   44 1
    39   21   22 ar
    40   21   45 1
    41   22   23 ar
    42   22   46 1
    43   23   24 ar
    44   23   25 1
    45   24   47 1
    46   25   26 2
    47   25   27 1
@<TRIPOS>MOLECULE
ZINC41107670
   48    48     0     0     0
SMALL
USER_CHARGES

@<TRIPOS>ATOM
      1 C1         -0.0488   -3.2702    4.0859 C.3       1 <0>         0.0206
      2 O1         -0.0369   -3.1484    2.6621 O.3       1 <0>        -0.3055
      3 C2          0.6776   -2.1181    2.1367 C.ar      1 <0>         0.2166
      4 C3          1.3576   -1.2464    2.9747 C.ar      1 <0>        -0.1978
      5 C4          2.0833   -0.2000    2.4396 C.ar      1 <0>        -0.0527
      6 C5          2.1321   -0.0208    1.0673 C.ar      1 <0>         0.0497
      7 C6          1.4536   -0.8897    0.2300 C.ar      1 <0>        -0.0213
      8 C7          0.7321   -1.9410    0.7623 C.ar      1 <0>        -0.6922
      9 S1         -0.1249   -3.0513   -0.3042 S.o2      1 <0>         2.7002
     10 O2          0.1104   -2.6023   -1.6317 O.2       1 <0>        -0.9432
     11 O3          0.2065   -4.3645    0.1259 O.2       1 <0>        -0.9303
     12 N1         -1.7439   -2.8539   -0.0177 N.pl3     1 <0>        -1.0916
     13 C8         -2.3960   -1.5834   -0.3444 C.3       1 <0>         0.1714
     14 H1         -1.6577   -0.7817   -0.3296 H         1 <0>         0.1264
     15 C9         -3.4877   -1.2905    0.6868 C.3       1 <0>        -0.1172
     16 C10        -2.8479   -1.0757    2.0599 C.3       1 <0>        -0.1402
     17 C11        -3.9396   -0.7828    3.0910 C.3       1 <0>         0.1022
     18 N2         -3.3270   -0.5771    4.4058 N.pl3     1 <0>        -0.6788
     19 C12        -4.1017   -0.3032    5.4754 C.2       1 <0>         0.7153
     20 N3         -5.4404   -0.2187    5.3345 N.pl3     1 <0>        -0.8397
     21 N4         -3.5385   -0.1142    6.6841 N.2       1 <0>        -0.5061
     22 N5         -4.2835    0.0522    7.7239 N.pl3     1 <0>         0.1950
     23 O4         -4.5943   -0.9781    8.4831 O.2       1 <0>        -0.2359
     24 O5         -4.7334    1.2525    8.0264 O.3       1 <0>        -0.2495
     25 C13        -3.0123   -1.6734   -1.7167 C.2       1 <0>         0.4409
     26 O6         -2.9167   -2.6940   -2.3562 O.2       1 <0>        -0.4771
     27 O7         -3.6676   -0.6196   -2.2285 O.3       1 <0>        -0.3525
     28 C14        -4.2267   -0.7752   -3.5344 C.3       1 <0>         0.0317
     29 F1          2.8422    1.0031    0.5452 F         1 <0>        -0.1303
     30 H2         -0.4722   -2.3665    4.5243 H         1 <0>         0.0616
     31 H3         -0.6537   -4.1307    4.3719 H         1 <0>         0.1143
     32 H4          0.9704   -3.4063    4.4474 H         1 <0>         0.0683
     33 H5          1.3194   -1.3857    4.0450 H         1 <0>         0.1513
     34 H6          2.6125    0.4791    3.0917 H         1 <0>         0.1505
     35 H7          1.4923   -0.7486   -0.8401 H         1 <0>         0.1639
     36 H8         -2.2605   -3.5795    0.3664 H         1 <0>         0.4287
     37 H9         -4.0317   -0.3921    0.3948 H         1 <0>         0.1035
     38 H10        -4.1774   -2.1332    0.7351 H         1 <0>         0.0898
     39 H11        -2.3040   -1.9740    2.3518 H         1 <0>         0.0899
     40 H12        -2.1583   -0.2330    2.0115 H         1 <0>         0.0853
     41 H13        -4.4835    0.1156    2.7991 H         1 <0>         0.0867
     42 H14        -4.6293   -1.6255    3.1393 H         1 <0>         0.0872
     43 H15        -2.3642   -0.6379    4.5071 H         1 <0>         0.4309
     44 H16        -5.8400   -0.2776    4.4526 H         1 <0>         0.4201
     45 H17        -4.9478   -1.5925   -3.5259 H         1 <0>         0.0624
     46 H18        -4.7270    0.1477   -3.8278 H         1 <0>         0.1055
     47 H19        -3.4317   -0.9994   -4.2456 H         1 <0>         0.0646
     48 H20        -6.0037   -0.0990    6.1151 H         1 <0>         0.4274
@<TRIPOS>BOND
     1    1    2 1
     2    1   30 1
     3    1   31 1
     4    1   32 1
     5    2    3 1
     6    3    8 ar
     7    3    4 ar
     8    4    5 ar
     9    4   33 1
    10    5    6 ar
    11    5   34 1
    12    6    7 ar
    13    6   29 1
    14    7    8 ar
    15    7   35 1
    16    8    9 1
    17    9   10 2
    18    9   11 2
    19    9   12 1
    20   12   13 1
    21   12   36 1
    22   13   14 1
    23   13   15 1
    24   13   25 1
    25   15   16 1
    26   15   37 1
    27   15   38 1
    28   16   17 1
    29   16   39 1
    30   16   40 1
    31   17   18 1
    32   17   41 1
    33   17   42 1
    34   18   19 1
    35   18   43 1
    36   19   20 1
    37   19   21 2
    38   20   44 1
    39   20   48 1
    40   21   22 1
    41   22   23 2
    42   22   24 1
    43   25   26 2
    44   25   27 1
    45   27   28 1
    46   28   45 1
    47   28   46 1
    48   28   47 1
@<TRIPOS>MOLECULE
ZINC59887428
   54    55     0     0     0
SMALL
USER_CHARGES

@<TRIPOS>ATOM
      1 C1         -0.0187    1.5258    0.0104 C.3       1 <0>        -0.1296
      2 C2          0.0021   -0.0041    0.0020 C.3       1 <0>        -0.0721
      3 C3          0.7421   -0.5109    1.2415 C.3       1 <0>        -0.1466
      4 C4         -1.4333   -0.5336    0.0129 C.3       1 <0>        -0.1466
      5 C5          0.7074   -0.4901   -1.2379 C.2       1 <0>         0.5245
      6 O1          1.1500    0.3085   -2.0362 O.2       1 <0>        -0.5340
      7 N1          0.8465   -1.8122   -1.4596 N.am      1 <0>        -0.5204
      8 N2          1.5023   -2.2640   -2.6123 N.am      1 <0>        -0.5182
      9 C6          1.6413   -3.5861   -2.8340 C.2       1 <0>         0.5384
     10 O2          1.1988   -4.3847   -2.0357 O.2       1 <0>        -0.5181
     11 C7          2.3467   -4.0721   -4.0739 C.3       1 <0>        -0.1569
     12 S1          2.3713   -5.8859   -4.0838 S.3       1 <0>         0.1230
     13 C8          3.2176   -6.2925   -5.5748 C.2       1 <0>         0.2148
     14 N3          3.4710   -7.5310   -6.0114 N.2       1 <0>        -0.5184
     15 C9          4.1191   -7.4730   -7.1562 C.2       1 <0>         0.5649
     16 N4          4.2914   -6.1716   -7.4720 N.pl3     1 <0>        -0.5051
     17 N5          3.6963   -5.4296   -6.4391 N.2       1 <0>        -0.3247
     18 N6          4.5475   -8.5542   -7.9032 N.pl3     1 <0>        -0.5510
     19 N7          4.2993   -9.8580   -7.4545 N.2       1 <0>        -0.2156
     20 C10         4.7014  -10.8728   -8.1557 C.2       1 <0>         0.1535
     21 C11         4.4399  -12.2466   -7.6830 C.2       1 <0>        -0.2076
     22 C12         3.7633  -12.6094   -6.4987 C.2       1 <0>         0.0963
     23 N8          3.7328  -13.9131   -6.4312 N.2       1 <0>        -0.2962
     24 N9          4.3803  -14.4391   -7.5550 N.pl3     1 <0>        -0.3626
     25 C13         4.8059  -13.4129   -8.3190 C.2       1 <0>         0.0987
     26 C14         4.5608  -15.8622   -7.8528 C.3       1 <0>         0.1355
     27 C15         5.2498  -16.5472   -6.6709 C.3       1 <0>         0.0499
     28 O3          5.4258  -17.9352   -6.9613 O.3       1 <0>        -0.3908
     29 C16         6.0641  -18.6714   -5.9160 C.3       1 <0>         0.0336
     30 H1          1.0039    1.9031    0.0027 H         1 <0>         0.0648
     31 H2         -0.5459    1.8868   -0.8726 H         1 <0>         0.0649
     32 H3         -0.5289    1.8773    0.9072 H         1 <0>         0.0686
     33 H4          0.2319   -0.1594    2.1383 H         1 <0>         0.0760
     34 H5          0.7568   -1.6008    1.2356 H         1 <0>         0.0623
     35 H6          1.7647   -0.1336    1.2338 H         1 <0>         0.0647
     36 H7         -1.9605   -0.1726   -0.8702 H         1 <0>         0.0647
     37 H8         -1.4185   -1.6235    0.0069 H         1 <0>         0.0623
     38 H9         -1.9435   -0.1821    0.9097 H         1 <0>         0.0761
     39 H10         0.4926   -2.4509   -0.8211 H         1 <0>         0.4333
     40 H11         1.8562   -1.6253   -3.2507 H         1 <0>         0.4349
     41 H12         1.8195   -3.7110   -4.9569 H         1 <0>         0.1290
     42 H13         3.3693   -3.6948   -4.0816 H         1 <0>         0.1290
     43 H14         5.0200   -8.4102   -8.7380 H         1 <0>         0.3980
     44 H15         5.2275  -10.7126   -9.0852 H         1 <0>         0.1197
     45 H16         3.3441  -11.9273   -5.7738 H         1 <0>         0.1955
     46 H17         5.3373  -13.4907   -9.2560 H         1 <0>         0.1857
     47 H18         3.5883  -16.3238   -8.0237 H         1 <0>         0.0995
     48 H19         5.1767  -15.9713   -8.7454 H         1 <0>         0.1087
     49 H20         6.2223  -16.0855   -6.4999 H         1 <0>         0.0557
     50 H21         4.6339  -16.4380   -5.7782 H         1 <0>         0.0680
     51 H22         5.4651  -18.6063   -5.0077 H         1 <0>         0.0459
     52 H23         6.1606  -19.7155   -6.2136 H         1 <0>         0.0917
     53 H24         7.0535  -18.2538   -5.7294 H         1 <0>         0.0440
     54 H25         4.7354   -5.8189   -8.2590 H         1 <0>         0.4386
@<TRIPOS>BOND
     1    1    2 1
     2    1   30 1
     3    1   31 1
     4    1   32 1
     5    2    3 1
     6    2    4 1
     7    2    5 1
     8    3   33 1
     9    3   34 1
    10    3   35 1
    11    4   36 1
    12    4   37 1
    13    4   38 1
    14    5    6 2
    15    5    7 am
    16    7    8 1
    17    7   39 1
    18    8    9 am
    19    8   40 1
    20    9   10 2
    21    9   11 1
    22   11   12 1
    23   11   41 1
    24   11   42 1
    25   12   13 1
    26   13   17 2
    27   13   14 1
    28   14   15 2
    29   15   16 1
    30   15   18 1
    31   16   17 1
    32   16   54 1
    33   18   19 1
    34   18   43 1
    35   19   20 2
    36   20   21 1
    37   20   44 1
    38   21   25 2
    39   21   22 1
    40   22   23 2
    41   22   45 1
    42   23   24 1
    43   24   25 1
    44   24   26 1
    45   25   46 1
    46   26   27 1
    47   26   47 1
    48   26   48 1
    49   27   28 1
    50   27   49 1
    51   27   50 1
    52   28   29 1
    53   29   51 1
    54   29   52 1
    55   29   53 1
@<TRIPOS>MOLECULE
ZINC04762096
   47    47     0     0     0
SMALL
USER_CHARGES
benzyl 1-[(1-carbamoyl-3-methylsulfanyl-propyl)carbamoyl]ethylaminoformate
@<TRIPOS>ATOM
      1 C1         -4.7553    5.6015    0.6082 C.3       1 <0>        -0.1635
      2 C2         -4.6883    4.1964    1.2099 C.3       1 <0>         0.1461
      3 H1         -5.3051    3.5186    0.6197 H         1 <0>         0.1233
      4 C3         -3.2609    3.7134    1.2005 C.2       1 <0>         0.5233
      5 O1         -2.7108    3.4267    2.2427 O.2       1 <0>        -0.5257
      6 N1         -2.5954    3.6001    0.0339 N.am      1 <0>        -0.7039
      7 C4         -1.2077    3.1306    0.0248 C.3       1 <0>         0.1339
      8 H2         -0.6947    3.4961    0.9144 H         1 <0>         0.1223
      9 C5         -0.4994    3.6572   -1.2250 C.3       1 <0>        -0.1078
     10 C6         -0.4100    5.1830   -1.1558 C.3       1 <0>        -0.0886
     11 S1          0.4298    5.8072   -2.6376 S.3       1 <0>        -0.2588
     12 C7          0.4539    7.6059   -2.4034 C.3       1 <0>        -0.1204
     13 C8         -1.1873    1.6238    0.0165 C.2       1 <0>         0.5072
     14 O2         -2.2293    1.0032    0.0181 O.2       1 <0>        -0.5268
     15 N2         -0.0111    0.9658    0.0074 N.am      1 <0>        -0.8511
     16 N3         -5.1830    4.2314    2.5884 N.am      1 <0>        -0.6941
     17 C9         -6.5047    4.1329    2.8328 C.2       1 <0>         0.6546
     18 O3         -7.2861    4.0151    1.9098 O.2       1 <0>        -0.5701
     19 O4         -6.9593    4.1650    4.0997 O.3       1 <0>        -0.3613
     20 C10        -8.3947    4.0538    4.2880 C.3       1 <0>         0.1304
     21 C11        -8.7140    4.1088    5.7598 C.ar      1 <0>        -0.1024
     22 C12        -8.7650    2.9425    6.5001 C.ar      1 <0>        -0.0925
     23 C13        -9.0531    2.9935    7.8511 C.ar      1 <0>        -0.1232
     24 C14        -9.3002    4.2098    8.4597 C.ar      1 <0>        -0.1068
     25 C15        -9.2548    5.3756    7.7182 C.ar      1 <0>        -0.1238
     26 C16        -8.9615    5.3251    6.3683 C.ar      1 <0>        -0.0929
     27 H3         -5.7878    5.9508    0.6150 H         1 <0>         0.0798
     28 H4         -4.1385    6.2793    1.1984 H         1 <0>         0.0674
     29 H5         -4.3873    5.5755   -0.4175 H         1 <0>         0.0758
     30 H6         -3.0353    3.8295   -0.7996 H         1 <0>         0.4096
     31 H7          0.5047    3.2364   -1.2779 H         1 <0>         0.0977
     32 H8         -1.0626    3.3660   -2.1116 H         1 <0>         0.0903
     33 H9         -1.4141    5.6037   -1.1029 H         1 <0>         0.0866
     34 H10         0.1532    5.4741   -0.2692 H         1 <0>         0.0873
     35 H11         0.9457    8.0766   -3.2547 H         1 <0>         0.1045
     36 H12        -0.5683    7.9757   -2.3242 H         1 <0>         0.0781
     37 H13         0.9990    7.8461   -1.4905 H         1 <0>         0.0780
     38 H14         0.0021   -0.0041    0.0020 H         1 <0>         0.4058
     39 H15         0.8223    1.4622    0.0021 H         1 <0>         0.4024
     40 H16        -4.5592    4.3254    3.3253 H         1 <0>         0.4168
     41 H17        -8.8931    4.8775    3.7770 H         1 <0>         0.0822
     42 H18        -8.7429    3.1067    3.8759 H         1 <0>         0.0821
     43 H19        -8.5760    1.9919    6.0237 H         1 <0>         0.1254
     44 H20        -9.0889    2.0827    8.4304 H         1 <0>         0.1266
     45 H21        -9.5290    4.2493    9.5145 H         1 <0>         0.1253
     46 H22        -9.4482    6.3259    8.1937 H         1 <0>         0.1264
     47 H23        -8.9261    6.2359    5.7890 H         1 <0>         0.1250
@<TRIPOS>BOND
     1    1    2 1
     2    1   27 1
     3    1   28 1
     4    1   29 1
     5    2    3 1
     6    2    4 1
     7    2   16 1
     8    4    5 2
     9    4    6 am
    10    6    7 1
    11    6   30 1
    12    7    8 1
    13    7    9 1
    14    7   13 1
    15    9   10 1
    16    9   31 1
    17    9   32 1
    18   10   11 1
    19   10   33 1
    20   10   34 1
    21   11   12 1
    22   12   35 1
    23   12   36 1
    24   12   37 1
    25   13   14 2
    26   13   15 am
    27   15   38 1
    28   15   39 1
    29   16   17 am
    30   16   40 1
    31   17   18 2
    32   17   19 1
    33   19   20 1
    34   20   21 1
    35   20   41 1
    36   20   42 1
    37   21   26 ar
    38   21   22 ar
    39   22   23 ar
    40   22   43 1
    41   23   24 ar
    42   23   44 1
    43   24   25 ar
    44   24   45 1
    45   25   26 ar
    46   25   46 1
    47   26   47 1
@<TRIPOS>MOLECULE
ZINC22976638
   53    53     0     0     0
SMALL
USER_CHARGES
N-[(1S)-3-(N'-(isopentylcarbamothioyl)hydrazino)-3-oxo-1-(p-tolyl)propyl]acetamide
@<TRIPOS>ATOM
      1 C1          1.4002    5.1998   -5.0022 C.3       1 <0>        -0.1204
      2 C2          0.7350    4.7883   -3.7141 C.ar      1 <0>        -0.0803
      3 C3         -0.3014    5.5443   -3.1991 C.ar      1 <0>        -0.1187
      4 C4         -0.9113    5.1671   -2.0174 C.ar      1 <0>        -0.0975
      5 C5         -0.4848    4.0338   -1.3506 C.ar      1 <0>        -0.1075
      6 C6          0.5550    3.2806   -1.8628 C.ar      1 <0>        -0.0990
      7 C7          1.1615    3.6550   -3.0473 C.ar      1 <0>        -0.1229
      8 C8         -1.1494    3.6228   -0.0620 C.3       1 <0>         0.2057
      9 H1         -2.1524    4.0703   -0.0008 H         1 <0>         0.1082
     10 C9         -0.2811    4.0566    1.1207 C.3       1 <0>        -0.1344
     11 C10        -1.0017    3.7562    2.4097 C.2       1 <0>         0.5182
     12 O1         -2.1014    3.2454    2.3849 O.2       1 <0>        -0.5099
     13 N1         -0.4240    4.0552    3.5901 N.am      1 <0>        -0.5602
     14 N2         -1.0938    3.7759    4.7885 N.pl3     1 <0>        -0.4835
     15 C11        -0.5161    4.0749    5.9689 C.2       1 <0>         0.5660
     16 S1         -1.3347    3.7336    7.4333 S.2       1 <0>        -0.6102
     17 N3          0.7059    4.6425    5.9965 N.pl3     1 <0>        -0.6941
     18 C12         1.3339    4.9675    7.2796 C.3       1 <0>         0.1216
     19 C13         2.7058    5.5974    7.0309 C.3       1 <0>        -0.1295
     20 C14         3.3616    5.9369    8.3709 C.3       1 <0>        -0.0913
     21 C15         3.6428    4.6460    9.1426 C.3       1 <0>        -0.1565
     22 C16         4.6763    6.6788    8.1219 C.3       1 <0>        -0.1499
     23 N4         -1.3131    2.1671   -0.0396 N.am      1 <0>        -0.7319
     24 C17        -2.3968    1.6020   -0.6076 C.2       1 <0>         0.5215
     25 O2         -3.2825    2.3011   -1.0521 O.2       1 <0>        -0.5422
     26 C18        -2.5108    0.1013   -0.6849 C.3       1 <0>        -0.1764
     27 H2          0.9283    6.1182   -5.3815 H         1 <0>         0.0665
     28 H3          1.2888    4.3965   -5.7453 H         1 <0>         0.0709
     29 H4          2.4691    5.3851   -4.8200 H         1 <0>         0.0709
     30 H5         -0.6343    6.4300   -3.7199 H         1 <0>         0.1235
     31 H6         -1.7207    5.7580   -1.6148 H         1 <0>         0.1230
     32 H7          0.8911    2.3977   -1.3396 H         1 <0>         0.1190
     33 H8          1.9714    3.0645   -3.4495 H         1 <0>         0.1218
     34 H9          0.6718    3.5076    1.0968 H         1 <0>         0.1098
     35 H10        -0.0838    5.1367    1.0540 H         1 <0>         0.1181
     36 H11         0.5734    4.5185    3.6126 H         1 <0>         0.4361
     37 H12        -2.0912    3.3126    4.7660 H         1 <0>         0.4885
     38 H13         1.2318    4.8618    5.0556 H         1 <0>         0.4032
     39 H14         0.6986    5.6776    7.8293 H         1 <0>         0.0884
     40 H15         1.4543    4.0486    7.8721 H         1 <0>         0.0920
     41 H16         3.3411    4.8873    6.4812 H         1 <0>         0.0702
     42 H17         2.5854    6.5163    6.4383 H         1 <0>         0.0700
     43 H18         2.6858    6.5757    8.9585 H         1 <0>         0.0768
     44 H19         4.1143    4.8901   10.1060 H         1 <0>         0.0586
     45 H20         4.3187    4.0074    8.5549 H         1 <0>         0.0549
     46 H21         2.6976    4.1126    9.3216 H         1 <0>         0.0619
     47 H22         5.1477    6.9229    9.0853 H         1 <0>         0.0593
     48 H23         4.4742    7.6069    7.5670 H         1 <0>         0.0551
     49 H24         5.3521    6.0401    7.5343 H         1 <0>         0.0552
     50 H25        -0.5515    1.5353    0.4408 H         1 <0>         0.4147
     51 H26        -3.4562   -0.1697   -1.1777 H         1 <0>         0.0919
     52 H27        -2.4927   -0.3206    0.3308 H         1 <0>         0.0876
     53 H28        -1.6668   -0.3012   -1.2642 H         1 <0>         0.0868
@<TRIPOS>BOND
     1    1    2 1
     2    1   27 1
     3    1   28 1
     4    1   29 1
     5    2    7 ar
     6    2    3 ar
     7    3    4 ar
     8    3   30 1
     9    4    5 ar
    10    4   31 1
    11    5    6 ar
    12    5    8 1
    13    6    7 ar
    14    6   32 1
    15    7   33 1
    16    8    9 1
    17    8   10 1
    18    8   23 1
    19   10   11 1
    20   10   34 1
    21   10   35 1
    22   11   12 2
    23   11   13 am
    24   13   14 1
    25   13   36 1
    26   14   15 1
    27   14   37 1
    28   15   16 2
    29   15   17 1
    30   17   18 1
    31   17   38 1
    32   18   19 1
    33   18   39 1
    34   18   40 1
    35   19   20 1
    36   19   41 1
    37   19   42 1
    38   20   21 1
    39   20   22 1
    40   20   43 1
    41   21   44 1
    42   21   45 1
    43   21   46 1
    44   22   47 1
    45   22   48 1
    46   22   49 1
    47   23   24 am
    48   23   50 1
    49   24   25 2
    50   24   26 1
    51   26   51 1
    52   26   52 1
    53   26   53 1
@<TRIPOS>MOLECULE
ZINC42859882
   60    61     0     0     0
SMALL
USER_CHARGES

@<TRIPOS>ATOM
      1 C1          1.3072    1.7893    0.0371 C.3       1 <0>        -0.1508
      2 C2          0.8151    0.3409    0.0693 C.3       1 <0>        -0.1239
      3 C3          1.3836   -0.4178   -1.1316 C.3       1 <0>        -0.1370
      4 C4          0.8915   -1.8661   -1.0993 C.3       1 <0>         0.1514
      5 N1          1.4358   -2.5925   -2.2492 N.pl3     1 <0>        -0.5970
      6 C5          2.7685   -3.1958   -2.1704 C.3       1 <0>         0.1186
      7 C6          2.6523   -4.6039   -1.6464 C.2       1 <0>         0.4757
      8 O1          1.5635   -5.0588   -1.3662 O.2       1 <0>        -0.5004
      9 N2          3.7584   -5.3578   -1.4890 N.am      1 <0>        -0.7327
     10 C7          3.6454   -6.7267   -0.9795 C.3       1 <0>         0.1747
     11 H1          2.7241   -7.1770   -1.3489 H         1 <0>         0.0851
     12 C8          3.6231   -6.7014    0.5501 C.3       1 <0>        -0.1591
     13 C9          4.8431   -7.5496   -1.4586 C.3       1 <0>        -0.1651
     14 C10         4.5758   -8.6583   -2.4785 C.3       1 <0>        -0.1771
     15 C11         4.9095   -9.0165   -1.0289 C.3       1 <0>        -0.1691
     16 C12         0.6747   -2.7114   -3.4352 C.2       1 <0>        -0.1014
     17 C13         1.1085   -2.1373   -4.5992 C.2       1 <0>         0.4502
     18 N3          0.3492   -2.2676   -5.7398 N.am      1 <0>        -0.5380
     19 C14        -0.8086   -2.9527   -5.7119 C.2       1 <0>         0.7096
     20 O2         -1.4664   -3.0579   -6.7294 O.2       1 <0>        -0.5375
     21 N4         -1.2499   -3.5234   -4.5764 N.am      1 <0>        -0.6649
     22 H2         -2.0872   -4.0130   -4.5787 H         1 <0>         0.4284
     23 C15        -0.5364   -3.4264   -3.4374 C.2       1 <0>         0.5485
     24 O3         -0.9409   -3.9515   -2.4135 O.2       1 <0>        -0.4947
     25 C16         0.8039   -1.6565   -6.9912 C.3       1 <0>         0.1095
     26 C17         1.6713   -2.6548   -7.7605 C.3       1 <0>        -0.1133
     27 C18         0.8183   -3.8530   -8.1818 C.3       1 <0>        -0.1432
     28 C19         2.2478   -1.9766   -9.0049 C.3       1 <0>        -0.1463
     29 N5          2.2922   -1.4360   -4.6289 N.pl3     1 <0>        -0.8392
     30 H3          2.3962    1.8040    0.0804 H         1 <0>         0.0522
     31 H4          0.9737    2.2658   -0.8848 H         1 <0>         0.0518
     32 H5          0.9022    2.3297    0.8926 H         1 <0>         0.0533
     33 H6          1.1486   -0.1357    0.9912 H         1 <0>         0.0618
     34 H7         -0.2739    0.3262    0.0261 H         1 <0>         0.0619
     35 H8          1.0501    0.0588   -2.0534 H         1 <0>         0.0601
     36 H9          2.4726   -0.4030   -1.0883 H         1 <0>         0.0580
     37 H10         1.2249   -2.3427   -0.1775 H         1 <0>         0.0615
     38 H11        -0.1976   -1.8809   -1.1426 H         1 <0>         0.0710
     39 H12         3.2185   -3.2135   -3.1631 H         1 <0>         0.0876
     40 H13         3.3940   -2.6084   -1.4983 H         1 <0>         0.0970
     41 H14         4.6292   -4.9940   -1.7131 H         1 <0>         0.3949
     42 H15         4.5445   -6.2511    0.9195 H         1 <0>         0.0562
     43 H16         2.7699   -6.1152    0.8914 H         1 <0>         0.0606
     44 H17         3.5391   -7.7199    0.9292 H         1 <0>         0.0641
     45 H18         5.7843   -7.0061   -1.5406 H         1 <0>         0.1072
     46 H19         3.5468   -8.8015   -2.8082 H         1 <0>         0.0950
     47 H20         5.3413   -8.8443   -3.2319 H         1 <0>         0.0950
     48 H21         5.8945   -9.4382   -0.8286 H         1 <0>         0.0976
     49 H22         4.1000   -9.3954   -0.4050 H         1 <0>         0.0974
     50 H23        -0.0600   -1.3834   -7.5971 H         1 <0>         0.1102
     51 H24         1.3882   -0.7638   -6.7683 H         1 <0>         0.0907
     52 H25         2.4863   -2.9956   -7.1220 H         1 <0>         0.0726
     53 H26         1.4362   -4.5642   -8.7299 H         1 <0>         0.0550
     54 H27         0.4075   -4.3362   -7.2953 H         1 <0>         0.0500
     55 H28         0.0033   -3.5122   -8.8203 H         1 <0>         0.0665
     56 H29         2.8556   -1.1229   -8.7048 H         1 <0>         0.0577
     57 H30         2.8658   -2.6878   -9.5530 H         1 <0>         0.0642
     58 H31         1.4328   -1.6358   -9.6435 H         1 <0>         0.0624
     59 H32         2.7815   -1.2754   -3.8069 H         1 <0>         0.4226
     60 H33         2.6371   -1.1023   -5.4718 H         1 <0>         0.4030
@<TRIPOS>BOND
     1    1    2 1
     2    1   30 1
     3    1   31 1
     4    1   32 1
     5    2    3 1
     6    2   33 1
     7    2   34 1
     8    3    4 1
     9    3   35 1
    10    3   36 1
    11    4    5 1
    12    4   37 1
    13    4   38 1
    14    5    6 1
    15    5   16 1
    16    6    7 1
    17    6   39 1
    18    6   40 1
    19    7    8 2
    20    7    9 am
    21    9   10 1
    22    9   41 1
    23   10   11 1
    24   10   12 1
    25   10   13 1
    26   12   42 1
    27   12   43 1
    28   12   44 1
    29   13   15 1
    30   13   14 1
    31   13   45 1
    32   14   15 1
    33   14   46 1
    34   14   47 1
    35   15   48 1
    36   15   49 1
    37   16   23 1
    38   16   17 2
    39   17   18 1
    40   17   29 1
    41   18   19 am
    42   18   25 1
    43   19   20 2
    44   19   21 am
    45   21   22 1
    46   21   23 am
    47   23   24 2
    48   25   26 1
    49   25   50 1
    50   25   51 1
    51   26   27 1
    52   26   28 1
    53   26   52 1
    54   27   53 1
    55   27   54 1
    56   27   55 1
    57   28   56 1
    58   28   57 1
    59   28   58 1
    60   29   59 1
    61   29   60 1
@<TRIPOS>MOLECULE
ZINC56979399
   51    51     0     0     0
SMALL
USER_CHARGES

@<TRIPOS>ATOM
      1 C1         -0.0114    1.5305   -0.0186 C.3       1 <0>        -0.1517
      2 C2          0.0063    0.0006   -0.0166 C.3       1 <0>        -0.1205
      3 C3          0.7237   -0.5028   -1.2707 C.3       1 <0>        -0.0987
      4 H1          1.7168   -0.0567   -1.3250 H         1 <0>         0.0826
      5 C4         -0.0807   -0.1090   -2.5112 C.3       1 <0>        -0.1371
      6 C5          0.8516   -2.0262   -1.2083 C.3       1 <0>         0.1534
      7 H2          1.3627   -2.3848   -2.1018 H         1 <0>         0.1190
      8 C6          1.6440   -2.4141    0.0135 C.2       1 <0>         0.5134
      9 O1          1.1430   -3.1217    0.8617 O.2       1 <0>        -0.5083
     10 N1          2.9092   -1.9747    0.1637 N.am      1 <0>        -0.6677
     11 C7          3.6115   -2.2536    1.3413 C.ar      1 <0>         0.1384
     12 C8          4.5012   -1.3208    1.8586 C.ar      1 <0>        -0.1346
     13 C9          5.1928   -1.5991    3.0209 C.ar      1 <0>        -0.1040
     14 C10         5.0007   -2.8053    3.6697 C.ar      1 <0>        -0.1102
     15 C11         4.1162   -3.7362    3.1571 C.ar      1 <0>        -0.0737
     16 C12         3.4164   -3.4611    1.9984 C.ar      1 <0>        -0.0955
     17 C13         3.9104   -5.0495    3.8670 C.3       1 <0>         0.1039
     18 O2          2.8497   -4.9172    4.8154 O.3       1 <0>        -0.3709
     19 C14         2.5718   -6.1127    5.5471 C.3       1 <0>         0.0623
     20 C15         1.4254   -5.8559    6.5274 C.3       1 <0>         0.0625
     21 O3          0.2296   -5.5724    5.7981 O.3       1 <0>        -0.3823
     22 C16        -0.9079   -5.3162    6.6242 C.3       1 <0>         0.0309
     23 N2         -0.4831   -2.6257   -1.1354 N.am      1 <0>        -0.7264
     24 C17        -1.1794   -2.8597   -2.2654 C.2       1 <0>         0.7111
     25 O4         -0.6997   -2.5733   -3.3453 O.2       1 <0>        -0.5885
     26 N3         -2.4073   -3.4113   -2.1984 N.am      1 <0>        -0.8654
     27 H3          1.0120    1.9057   -0.0271 H         1 <0>         0.0540
     28 H4         -0.5363    1.8866   -0.9050 H         1 <0>         0.0586
     29 H5         -0.5225    1.8891    0.8749 H         1 <0>         0.0545
     30 H6          0.5312   -0.3555    0.8698 H         1 <0>         0.0593
     31 H7         -1.0170   -0.3746   -0.0081 H         1 <0>         0.0650
     32 H8         -1.0738   -0.5550   -2.4569 H         1 <0>         0.0574
     33 H9         -0.1718    0.9763   -2.5556 H         1 <0>         0.0542
     34 H10         0.4304   -0.4676   -3.4046 H         1 <0>         0.0662
     35 H11         3.3329   -1.4651   -0.5446 H         1 <0>         0.4135
     36 H12         4.6521   -0.3790    1.3520 H         1 <0>         0.1274
     37 H13         5.8847   -0.8741    3.4237 H         1 <0>         0.1294
     38 H14         5.5431   -3.0207    4.5785 H         1 <0>         0.1246
     39 H15         2.7217   -4.1865    1.6013 H         1 <0>         0.1399
     40 H16         3.6534   -5.8194    3.1395 H         1 <0>         0.0583
     41 H17         4.8276   -5.3304    4.3846 H         1 <0>         0.0591
     42 H18         2.2870   -6.9047    4.8545 H         1 <0>         0.0587
     43 H19         3.4612   -6.4157    6.0996 H         1 <0>         0.0653
     44 H20         1.2723   -6.7396    7.1469 H         1 <0>         0.0647
     45 H21         1.6740   -5.0056    7.1624 H         1 <0>         0.0579
     46 H22        -1.1095   -6.1886    7.2457 H         1 <0>         0.0402
     47 H23        -0.7077   -4.4547    7.2612 H         1 <0>         0.0414
     48 H24        -1.7742   -5.1098    5.9957 H         1 <0>         0.0863
     49 H25        -0.8657   -2.8542   -0.2739 H         1 <0>         0.4068
     50 H26        -2.7899   -3.6398   -1.3368 H         1 <0>         0.3985
     51 H27        -2.9084   -3.5797   -3.0116 H         1 <0>         0.4170
@<TRIPOS>BOND
     1    1    2 1
     2    1   27 1
     3    1   28 1
     4    1   29 1
     5    2    3 1
     6    2   30 1
     7    2   31 1
     8    3    4 1
     9    3    5 1
    10    3    6 1
    11    5   32 1
    12    5   33 1
    13    5   34 1
    14    6    7 1
    15    6    8 1
    16    6   23 1
    17    8    9 2
    18    8   10 am
    19   10   11 1
    20   10   35 1
    21   11   16 ar
    22   11   12 ar
    23   12   13 ar
    24   12   36 1
    25   13   14 ar
    26   13   37 1
    27   14   15 ar
    28   14   38 1
    29   15   16 ar
    30   15   17 1
    31   16   39 1
    32   17   18 1
    33   17   40 1
    34   17   41 1
    35   18   19 1
    36   19   20 1
    37   19   42 1
    38   19   43 1
    39   20   21 1
    40   20   44 1
    41   20   45 1
    42   21   22 1
    43   22   46 1
    44   22   47 1
    45   22   48 1
    46   23   24 am
    47   23   49 1
    48   24   25 2
    49   24   26 am
    50   26   50 1
    51   26   51 1
@<TRIPOS>MOLECULE
ZINC63686179
   48    48     0     0     0
SMALL
USER_CHARGES

@<TRIPOS>ATOM
      1 C1         -0.0187    1.5258    0.0104 C.3       1 <0>        -0.1530
      2 C2          0.0021   -0.0041    0.0020 C.3       1 <0>        -0.1169
      3 C3          0.7182   -0.4975   -1.2568 C.3       1 <0>        -0.1358
      4 C4          0.7390   -2.0273   -1.2652 C.3       1 <0>         0.1563
      5 C5          1.5495   -2.5123   -2.4395 C.2       1 <0>         0.4971
      6 O1          0.9907   -2.8884   -3.4480 O.2       1 <0>        -0.5021
      7 N1          2.8953   -2.5279   -2.3689 N.am      1 <0>        -0.7305
      8 C6          3.6833   -2.9994   -3.5104 C.3       1 <0>         0.1689
      9 C7          5.1505   -2.9161   -3.1767 C.ar      1 <0>        -0.1492
     10 C8          5.8570   -1.7605   -3.4546 C.ar      1 <0>        -0.0585
     11 C9          7.2022   -1.6819   -3.1501 C.ar      1 <0>        -0.1525
     12 C10         7.8440   -2.7635   -2.5646 C.ar      1 <0>         0.1406
     13 C11         7.1328   -3.9217   -2.2863 C.ar      1 <0>        -0.2125
     14 C12         5.7866   -3.9934   -2.5880 C.ar      1 <0>        -0.0585
     15 O2          9.1673   -2.6887   -2.2645 O.3       1 <0>        -0.3056
     16 C13         9.7622   -3.8404   -1.6630 C.3       1 <0>         0.0604
     17 C14        11.2450   -3.5700   -1.4002 C.3       1 <0>         0.0611
     18 O3         11.3747   -2.5279   -0.4311 O.3       1 <0>        -0.3856
     19 C15        12.7275   -2.1959   -0.1121 C.3       1 <0>         0.0302
     20 N2         -0.6313   -2.5337   -1.3752 N.am      1 <0>        -0.7342
     21 C16        -1.3846   -2.2124   -2.4457 C.2       1 <0>         0.7111
     22 O4         -0.9268   -1.5023   -3.3201 O.2       1 <0>        -0.5645
     23 N3         -2.6452   -2.6782   -2.5469 N.am      1 <0>        -0.8703
     24 H1          1.0039    1.9031    0.0027 H         1 <0>         0.0547
     25 H2         -0.5459    1.8868   -0.8726 H         1 <0>         0.0547
     26 H3         -0.5289    1.8773    0.9072 H         1 <0>         0.0546
     27 H4          0.5293   -0.3651    0.8851 H         1 <0>         0.0606
     28 H5         -1.0205   -0.3814    0.0098 H         1 <0>         0.0617
     29 H6          0.1910   -0.1364   -2.1398 H         1 <0>         0.0965
     30 H7          1.7408   -0.1202   -1.2645 H         1 <0>         0.0738
     31 H8          1.1870   -2.3897   -0.3400 H         1 <0>         0.1082
     32 H9          3.3422   -2.2271   -1.5622 H         1 <0>         0.3993
     33 H10         3.4191   -4.0334   -3.7320 H         1 <0>         0.0730
     34 H11         3.4724   -2.3763   -4.3796 H         1 <0>         0.0751
     35 H12         5.3569   -0.9188   -3.9105 H         1 <0>         0.1319
     36 H13         7.7537   -0.7793   -3.3680 H         1 <0>         0.1333
     37 H14         7.6302   -4.7650   -1.8306 H         1 <0>         0.1290
     38 H15         5.2314   -4.8932   -2.3676 H         1 <0>         0.1263
     39 H16         9.2600   -4.0584   -0.7205 H         1 <0>         0.0731
     40 H17         9.6618   -4.6935   -2.3340 H         1 <0>         0.0796
     41 H18        11.7186   -4.4769   -1.0241 H         1 <0>         0.0733
     42 H19        11.7289   -3.2655   -2.3282 H         1 <0>         0.0626
     43 H20        12.7405   -1.3974    0.6298 H         1 <0>         0.0887
     44 H21        13.2319   -3.0743    0.2907 H         1 <0>         0.0424
     45 H22        13.2422   -1.8629   -1.0134 H         1 <0>         0.0436
     46 H23        -0.9965   -3.1002   -0.6777 H         1 <0>         0.3995
     47 H24        -3.0104   -3.2447   -1.8493 H         1 <0>         0.3936
     48 H25        -3.1873   -2.4470   -3.3173 H         1 <0>         0.4145
@<TRIPOS>BOND
     1    1    2 1
     2    1   24 1
     3    1   25 1
     4    1   26 1
     5    2    3 1
     6    2   27 1
     7    2   28 1
     8    3    4 1
     9    3   29 1
    10    3   30 1
    11    4    5 1
    12    4   20 1
    13    4   31 1
    14    5    6 2
    15    5    7 am
    16    7    8 1
    17    7   32 1
    18    8    9 1
    19    8   33 1
    20    8   34 1
    21    9   14 ar
    22    9   10 ar
    23   10   11 ar
    24   10   35 1
    25   11   12 ar
    26   11   36 1
    27   12   13 ar
    28   12   15 1
    29   13   14 ar
    30   13   37 1
    31   14   38 1
    32   15   16 1
    33   16   17 1
    34   16   39 1
    35   16   40 1
    36   17   18 1
    37   17   41 1
    38   17   42 1
    39   18   19 1
    40   19   43 1
    41   19   44 1
    42   19   45 1
    43   20   21 am
    44   20   46 1
    45   21   22 2
    46   21   23 am
    47   23   47 1
    48   23   48 1
@<TRIPOS>MOLECULE
ZINC02022108
   53    54     0     0     0
SMALL
USER_CHARGES
ethyl 2-acetylamino-3-[3,5-diamino-4-(4-methoxyphenoxy)-phenyl]-propanoate
@<TRIPOS>ATOM
      1 C1          1.0475    3.5287    0.0110 C.3       1 <0>        -0.1528
      2 C2          1.2685    2.0148    0.0008 C.3       1 <0>         0.0633
      3 O1         -0.0161    1.3381    0.0094 O.3       1 <0>        -0.3601
      4 C3          0.0021   -0.0041    0.0020 C.2       1 <0>         0.4456
      5 O2          1.0565   -0.5939   -0.0112 O.2       1 <0>        -0.4751
      6 C4         -1.2926   -0.7753    0.0102 C.3       1 <0>         0.1724
      7 H1         -2.0139   -0.2813   -0.6408 H         1 <0>         0.1246
      8 C5         -1.8454   -0.8287    1.4359 C.3       1 <0>        -0.0970
      9 C6         -3.1985   -1.4921    1.4255 C.ar      1 <0>         0.0219
     10 C7         -4.3390   -0.7282    1.2641 C.ar      1 <0>        -0.2439
     11 C8         -5.5876   -1.3355    1.2482 C.ar      1 <0>         0.2636
     12 C9         -5.6902   -2.7139    1.4060 C.ar      1 <0>        -0.0852
     13 C10        -4.5397   -3.4778    1.5738 C.ar      1 <0>         0.2630
     14 C11        -3.2953   -2.8618    1.5831 C.ar      1 <0>        -0.2332
     15 N1         -4.6364   -4.8649    1.7334 N.pl3     1 <0>        -0.8649
     16 O3         -6.9121   -3.3131    1.3957 O.3       1 <0>        -0.2415
     17 C12        -7.5645   -3.4525    2.5802 C.ar      1 <0>         0.0734
     18 C13        -6.9799   -2.9952    3.7523 C.ar      1 <0>        -0.1457
     19 C14        -7.6450   -3.1326    4.9550 C.ar      1 <0>        -0.1717
     20 C15        -8.8927   -3.7373    4.9924 C.ar      1 <0>         0.0941
     21 C16        -9.4751   -4.1993    3.8214 C.ar      1 <0>        -0.1161
     22 C17        -8.8126   -4.0573    2.6178 C.ar      1 <0>        -0.1103
     23 O4         -9.5454   -3.8767    6.1772 O.3       1 <0>        -0.3181
     24 C18        -8.8867   -3.3782    7.3432 C.3       1 <0>         0.0273
     25 N2         -6.7414   -0.5616    1.0790 N.pl3     1 <0>        -0.8651
     26 N3         -1.0526   -2.1377   -0.4718 N.am      1 <0>        -0.7184
     27 C19        -0.1906   -2.9416    0.1817 C.2       1 <0>         0.5179
     28 O5          0.3864   -2.5372    1.1689 O.2       1 <0>        -0.5181
     29 C20         0.0564   -4.3431   -0.3141 C.3       1 <0>        -0.1703
     30 H2          2.0118    4.0368    0.0045 H         1 <0>         0.0803
     31 H3          0.4781    3.8188   -0.8720 H         1 <0>         0.0668
     32 H4          0.4951    3.8092    0.9078 H         1 <0>         0.0674
     33 H5          1.8379    1.7248    0.8838 H         1 <0>         0.0704
     34 H6          1.8209    1.7343   -0.8960 H         1 <0>         0.0686
     35 H7         -1.1655   -1.3999    2.0680 H         1 <0>         0.1048
     36 H8         -1.9404    0.1843    1.8269 H         1 <0>         0.0931
     37 H9         -4.2586    0.3423    1.1461 H         1 <0>         0.1260
     38 H10        -2.4015   -3.4540    1.7133 H         1 <0>         0.1200
     39 H11        -3.8338   -5.3967    1.8507 H         1 <0>         0.4009
     40 H12        -5.5062   -5.2944    1.7268 H         1 <0>         0.4019
     41 H13        -6.0065   -2.5280    3.7237 H         1 <0>         0.1295
     42 H14        -7.1918   -2.7726    5.8668 H         1 <0>         0.1287
     43 H15       -10.4465   -4.6704    3.8507 H         1 <0>         0.1377
     44 H16        -9.2662   -4.4168    1.7060 H         1 <0>         0.1377
     45 H17        -8.7090   -2.3086    7.2309 H         1 <0>         0.0544
     46 H18        -9.5141   -3.5524    8.2174 H         1 <0>         0.1008
     47 H19        -7.9346   -3.8932    7.4709 H         1 <0>         0.0544
     48 H20        -7.6135   -0.9862    1.0716 H         1 <0>         0.4019
     49 H21        -6.6690    0.3994    0.9690 H         1 <0>         0.4016
     50 H22        -1.5140   -2.4612   -1.2613 H         1 <0>         0.4094
     51 H23        -0.5458   -4.5250   -1.2043 H         1 <0>         0.0750
     52 H24         1.1119   -4.4611   -0.5592 H         1 <0>         0.0951
     53 H25        -0.2183   -5.0570    0.4624 H         1 <0>         0.0936
@<TRIPOS>BOND
     1    1    2 1
     2    1   30 1
     3    1   31 1
     4    1   32 1
     5    2    3 1
     6    2   33 1
     7    2   34 1
     8    3    4 1
     9    4    5 2
    10    4    6 1
    11    6    7 1
    12    6    8 1
    13    6   26 1
    14    8    9 1
    15    8   35 1
    16    8   36 1
    17    9   14 ar
    18    9   10 ar
    19   10   11 ar
    20   10   37 1
    21   11   12 ar
    22   11   25 1
    23   12   13 ar
    24   12   16 1
    25   13   14 ar
    26   13   15 1
    27   14   38 1
    28   15   39 1
    29   15   40 1
    30   16   17 1
    31   17   22 ar
    32   17   18 ar
    33   18   19 ar
    34   18   41 1
    35   19   20 ar
    36   19   42 1
    37   20   21 ar
    38   20   23 1
    39   21   22 ar
    40   21   43 1
    41   22   44 1
    42   23   24 1
    43   24   45 1
    44   24   46 1
    45   24   47 1
    46   25   48 1
    47   25   49 1
    48   26   27 am
    49   26   50 1
    50   27   28 2
    51   27   29 1
    52   29   51 1
    53   29   52 1
    54   29   53 1
@<TRIPOS>MOLECULE
ZINC20834557
   43    44     0     0     0
SMALL
USER_CHARGES
2,2,2-trifluoro-N'-[2-[[5-[(N'E)-N'-[(2-hydroxy-3-methoxy-phenyl)methylene]hydrazino]-4H-1,2,4-triazol-3-yl]sulfanyl]acetyl]acetohydrazide
@<TRIPOS>ATOM
      1 C1          0.7098    9.7580    0.0527 C.3       1 <0>         0.0213
      2 O1          0.6660    8.3297    0.0448 O.3       1 <0>        -0.3046
      3 C2         -0.5642    7.7497    0.0473 C.ar      1 <0>         0.0776
      4 C3         -1.7033    8.5402    0.0573 C.ar      1 <0>        -0.1459
      5 C4         -2.9584    7.9572    0.0599 C.ar      1 <0>        -0.1295
      6 C5         -3.0882    6.5841    0.0531 C.ar      1 <0>        -0.0759
      7 C6         -1.9489    5.7750    0.0431 C.ar      1 <0>        -0.1419
      8 C7         -0.6792    6.3654    0.0458 C.ar      1 <0>         0.1881
      9 O2          0.4356    5.5875    0.0422 O.3       1 <0>        -0.5086
     10 C8         -2.0831    4.3074    0.0358 C.2       1 <0>         0.1738
     11 N1         -1.0222    3.5583    0.0265 N.2       1 <0>        -0.2989
     12 N2         -1.1497    2.1632    0.0195 N.pl3     1 <0>        -0.5490
     13 C9         -0.0165    1.3631    0.0095 C.2       1 <0>         0.5371
     14 N3          0.0021   -0.0041    0.0020 N.2       1 <0>        -0.5444
     15 C10         1.3068   -0.4085   -0.0126 C.2       1 <0>         0.2084
     16 N4          2.0634    0.6629   -0.0141 N.2       1 <0>        -0.3217
     17 N5          1.2248    1.7851   -0.0000 N.pl3     1 <0>        -0.4769
     18 S1          1.8737   -2.0768   -0.0265 S.3       1 <0>         0.1281
     19 C11         3.6814   -1.9258   -0.0432 C.3       1 <0>        -0.1588
     20 C12         4.3001   -3.2999   -0.0560 C.2       1 <0>         0.5448
     21 O3          3.5914   -4.2841   -0.0541 O.2       1 <0>        -0.5169
     22 N6          5.6410   -3.4350   -0.0697 N.am      1 <0>        -0.5244
     23 N7          6.2162   -4.7124   -0.0816 N.am      1 <0>        -0.5015
     24 C13         7.5571   -4.8475   -0.0953 C.2       1 <0>         0.4820
     25 O4          8.2658   -3.8633   -0.0972 O.2       1 <0>        -0.4824
     26 C14         8.1759   -6.2216   -0.1081 C.3       1 <0>         0.4693
     27 F1          9.5700   -6.1052   -0.1210 F         1 <0>        -0.1448
     28 F2          7.7771   -6.9233    1.0345 F         1 <0>        -0.1617
     29 F3          7.7550   -6.9119   -1.2499 F         1 <0>        -0.1618
     30 H1          1.7576   10.0927    0.0497 H         1 <0>         0.1038
     31 H2          0.2070   10.1352    0.9554 H         1 <0>         0.0569
     32 H3          0.1985   10.1454   -0.8409 H         1 <0>         0.0570
     33 H4         -1.6107    9.6162    0.0626 H         1 <0>         0.1387
     34 H5         -3.8405    8.5804    0.0677 H         1 <0>         0.1349
     35 H6         -4.0701    6.1344    0.0560 H         1 <0>         0.1360
     36 H7          0.3415    4.4915    0.0410 H         1 <0>         0.4191
     37 H8         -3.0819    3.8465    0.0382 H         1 <0>         0.1481
     38 H9         -2.1484    1.7022    0.0219 H         1 <0>         0.4491
     39 H10         3.9949   -1.3741   -0.9417 H         1 <0>         0.1332
     40 H11         4.0123   -1.3830    0.8545 H         1 <0>         0.1332
     41 H12         6.2838   -2.5423   -0.0715 H         1 <0>         0.4675
     42 H13         5.5734   -5.6051   -0.0798 H         1 <0>         0.4732
     43 H14         1.4390    2.8640    0.0039 H         1 <0>         0.4686
@<TRIPOS>BOND
     1    1    2 1
     2    1   30 1
     3    1   31 1
     4    1   32 1
     5    2    3 1
     6    3    8 ar
     7    3    4 ar
     8    4    5 ar
     9    4   33 1
    10    5    6 ar
    11    5   34 1
    12    6    7 ar
    13    6   35 1
    14    7    8 ar
    15    7   10 1
    16    8    9 1
    17    9   36 1
    18   10   11 2
    19   10   37 1
    20   11   12 1
    21   12   13 1
    22   12   38 1
    23   13   17 1
    24   13   14 2
    25   14   15 1
    26   15   16 2
    27   15   18 1
    28   16   17 1
    29   17   43 1
    30   18   19 1
    31   19   20 1
    32   19   39 1
    33   19   40 1
    34   20   21 2
    35   20   22 am
    36   22   23 1
    37   22   41 1
    38   23   24 am
    39   23   42 1
    40   24   25 2
    41   24   26 1
    42   26   27 1
    43   26   28 1
    44   26   29 1
@<TRIPOS>MOLECULE
ZINC23053568
   46    47     0     0     0
SMALL
USER_CHARGES
2-[[2-[(3-amino-3-oxo-propyl)-(4-methoxyphenyl)amino]acetyl]amino]thiophene-3-carboxamide
@<TRIPOS>ATOM
      1 C1          2.4192    4.1138    0.0007 C.3       1 <0>         0.0257
      2 O1          1.1554    3.4469    0.0091 O.3       1 <0>        -0.3210
      3 C2          1.1747    2.0871    0.0021 C.ar      1 <0>         0.0757
      4 C3         -0.0167    1.3769    0.0096 C.ar      1 <0>        -0.1026
      5 C4          0.0021   -0.0041    0.0020 C.ar      1 <0>        -0.1526
      6 C5          1.2141   -0.6815   -0.0132 C.ar      1 <0>         0.1851
      7 C6          2.4064    0.0303   -0.0208 C.ar      1 <0>        -0.1481
      8 C7          2.3858    1.4112   -0.0132 C.ar      1 <0>        -0.1588
      9 N1          1.2340   -2.0807   -0.0205 N.pl3     1 <0>        -0.6085
     10 C8          2.5130   -2.7950   -0.0366 C.3       1 <0>         0.1425
     11 C9          2.9723   -3.0510    1.4002 C.3       1 <0>        -0.1648
     12 C10         4.2880   -3.7857    1.3837 C.2       1 <0>         0.5194
     13 O2          4.8071   -4.0761    0.3267 O.2       1 <0>        -0.5506
     14 N2          4.8877   -4.1202    2.5434 N.am      1 <0>        -0.8796
     15 C11        -0.0241   -2.8313   -0.0120 C.3       1 <0>         0.1120
     16 C12        -0.4693   -3.0815   -1.4298 C.2       1 <0>         0.4769
     17 O3          0.1985   -2.6731   -2.3561 O.2       1 <0>        -0.4840
     18 N3         -1.6097   -3.7591   -1.6683 N.am      1 <0>        -0.6282
     19 C13        -2.0194   -3.9893   -2.9729 C.2       1 <0>         0.1312
     20 C14        -3.1499   -4.6654   -3.4162 C.2       1 <0>        -0.2720
     21 C15        -3.3347   -4.7541   -4.8451 C.2       1 <0>        -0.1050
     22 C16        -2.3953   -4.1858   -5.6223 C.2       1 <0>        -0.2433
     23 S1         -1.2427   -3.5107   -4.4446 S.3       1 <0>         0.2184
     24 C17        -4.1097   -5.2565   -2.4784 C.2       1 <0>         0.5945
     25 O4         -3.9261   -5.1612   -1.2790 O.2       1 <0>        -0.5760
     26 N4         -5.1952   -5.9052   -2.9446 N.am      1 <0>        -0.8712
     27 H1          2.2595    5.2021    0.0076 H         1 <0>         0.0995
     28 H2          2.9771    3.8308   -0.9041 H         1 <0>         0.0541
     29 H3          2.9938    3.8218    0.8921 H         1 <0>         0.0536
     30 H4         -0.9593    1.9040    0.0169 H         1 <0>         0.1300
     31 H5         -0.9257   -0.5569    0.0083 H         1 <0>         0.1233
     32 H6          3.3495   -0.4958   -0.0324 H         1 <0>         0.1262
     33 H7          3.3130    1.9650   -0.0195 H         1 <0>         0.1278
     34 H8          2.3901   -3.7553   -0.5589 H         1 <0>         0.0824
     35 H9          3.2660   -2.1870   -0.5594 H         1 <0>         0.0887
     36 H10         3.0951   -2.0907    1.9225 H         1 <0>         0.0989
     37 H11         2.2193   -3.6590    1.9230 H         1 <0>         0.0956
     38 H12         5.8480   -4.6565    2.5313 H         1 <0>         0.4227
     39 H13         4.4168   -3.8569    3.5020 H         1 <0>         0.4206
     40 H14         0.1262   -3.7931    0.5003 H         1 <0>         0.1147
     41 H15        -0.7940   -2.2505    0.5170 H         1 <0>         0.1162
     42 H16        -2.2154   -4.1295   -0.8281 H         1 <0>         0.4610
     43 H17        -4.1885   -5.2592   -5.2720 H         1 <0>         0.1379
     44 H18        -2.3508   -4.1480   -6.7007 H         1 <0>         0.1874
     45 H19        -5.9152   -6.3486   -2.2411 H         1 <0>         0.4245
     46 H20        -5.3611   -5.9912   -4.0286 H         1 <0>         0.4197
@<TRIPOS>BOND
     1    1    2 1
     2    1   27 1
     3    1   28 1
     4    1   29 1
     5    2    3 1
     6    3    8 ar
     7    3    4 ar
     8    4    5 ar
     9    4   30 1
    10    5    6 ar
    11    5   31 1
    12    6    7 ar
    13    6    9 1
    14    7    8 ar
    15    7   32 1
    16    8   33 1
    17    9   10 1
    18    9   15 1
    19   10   11 1
    20   10   34 1
    21   10   35 1
    22   11   12 1
    23   11   36 1
    24   11   37 1
    25   12   13 2
    26   12   14 am
    27   14   38 1
    28   14   39 1
    29   15   16 1
    30   15   40 1
    31   15   41 1
    32   16   17 2
    33   16   18 am
    34   18   19 1
    35   18   42 1
    36   19   23 1
    37   19   20 2
    38   20   21 1
    39   20   24 1
    40   21   22 2
    41   21   43 1
    42   22   23 1
    43   22   44 1
    44   24   25 2
    45   24   26 am
    46   26   45 1
    47   26   46 1
@<TRIPOS>MOLECULE
ZINC42084074
   41    41     0     0     0
SMALL
USER_CHARGES

@<TRIPOS>ATOM
      1 C1         -1.2784    2.4332   -0.4750 C.3       1 <0>        -0.1216
      2 S1         -0.8934    0.6608   -0.4414 S.3       1 <0>        -0.2548
      3 C2         -2.5124   -0.1366   -0.2580 C.3       1 <0>        -0.0815
      4 C3         -2.3310   -1.6552   -0.2152 C.3       1 <0>        -0.1238
      5 C4         -3.6965   -2.3277   -0.0606 C.3       1 <0>         0.1768
      6 H1         -4.3595   -1.9915   -0.8577 H         1 <0>         0.1211
      7 C5         -3.5318   -3.8235   -0.1416 C.2       1 <0>         0.5052
      8 O1         -3.5092   -4.4870    0.8734 O.2       1 <0>        -0.4735
      9 N1         -3.4096   -4.4239   -1.3421 N.am      1 <0>        -0.5540
     10 N2         -3.2565   -5.8145   -1.4174 N.pl3     1 <0>        -0.4556
     11 C6         -3.1343   -6.4149   -2.6178 C.2       1 <0>         0.5556
     12 S2         -2.9472   -8.1142   -2.7099 S.2       1 <0>        -0.5616
     13 N3         -3.1594   -5.6777   -3.7458 N.pl3     1 <0>        -0.6299
     14 C7         -2.9417   -6.2893   -4.9877 C.ar      1 <0>         0.0774
     15 C8         -3.6094   -7.4621   -5.3115 C.ar      1 <0>        -0.0118
     16 C9         -3.3939   -8.0635   -6.5364 C.ar      1 <0>        -0.1546
     17 C10        -2.5120   -7.4980   -7.4418 C.ar      1 <0>         0.1441
     18 C11        -1.8439   -6.3280   -7.1224 C.ar      1 <0>        -0.1889
     19 C12        -2.0607   -5.7191   -5.8997 C.ar      1 <0>         0.1316
     20 F1         -1.4130   -4.5747   -5.5897 F         1 <0>        -0.1271
     21 F2         -2.3027   -8.0889   -8.6385 F         1 <0>        -0.1257
     22 N4         -4.2730   -1.9695    1.2377 N.am      1 <0>        -0.7346
     23 C13        -3.6228   -2.2876    2.3746 C.2       1 <0>         0.7101
     24 O2         -2.5577   -2.8718    2.3227 O.2       1 <0>        -0.5609
     25 N5         -4.1532   -1.9581    3.5690 N.am      1 <0>        -0.8651
     26 H2         -0.3559    3.0034   -0.5840 H         1 <0>         0.1044
     27 H3         -1.9385    2.6457   -1.3160 H         1 <0>         0.0771
     28 H4         -1.7722    2.7154    0.4548 H         1 <0>         0.0766
     29 H5         -2.9803    0.1997    0.6673 H         1 <0>         0.0840
     30 H6         -3.1465    0.1300   -1.1035 H         1 <0>         0.0828
     31 H7         -1.8631   -1.9914   -1.1405 H         1 <0>         0.0864
     32 H8         -1.6969   -1.9217    0.6303 H         1 <0>         0.1127
     33 H9         -3.4277   -3.8933   -2.1538 H         1 <0>         0.4187
     34 H10        -3.2385   -6.3451   -0.6056 H         1 <0>         0.4630
     35 H11        -3.3282   -4.7237   -3.6979 H         1 <0>         0.4039
     36 H12        -4.2970   -7.9047   -4.6059 H         1 <0>         0.1666
     37 H13        -3.9137   -8.9762   -6.7880 H         1 <0>         0.1521
     38 H14        -1.1565   -5.8885   -7.8300 H         1 <0>         0.1557
     39 H15        -5.1227   -1.5035    1.2791 H         1 <0>         0.4053
     40 H16        -5.0029   -1.4920    3.6104 H         1 <0>         0.3957
     41 H17        -3.6852   -2.1870    4.3872 H         1 <0>         0.4180
@<TRIPOS>BOND
     1    1    2 1
     2    1   26 1
     3    1   27 1
     4    1   28 1
     5    2    3 1
     6    3    4 1
     7    3   29 1
     8    3   30 1
     9    4    5 1
    10    4   31 1
    11    4   32 1
    12    5    6 1
    13    5    7 1
    14    5   22 1
    15    7    8 2
    16    7    9 am
    17    9   10 1
    18    9   33 1
    19   10   11 1
    20   10   34 1
    21   11   12 2
    22   11   13 1
    23   13   14 1
    24   13   35 1
    25   14   19 ar
    26   14   15 ar
    27   15   16 ar
    28   15   36 1
    29   16   17 ar
    30   16   37 1
    31   17   18 ar
    32   17   21 1
    33   18   19 ar
    34   18   38 1
    35   19   20 1
    36   22   23 am
    37   22   39 1
    38   23   24 2
    39   23   25 am
    40   25   40 1
    41   25   41 1
@<TRIPOS>MOLECULE
ZINC59880101
   53    54     0     0     0
SMALL
USER_CHARGES

@<TRIPOS>ATOM
      1 C1         -0.0187    1.5258    0.0104 C.3       1 <0>        -0.1471
      2 C2          0.0021   -0.0041    0.0020 C.3       1 <0>        -0.1104
      3 H1          0.5293   -0.3651    0.8851 H         1 <0>         0.1280
      4 C3          0.7074   -0.4901   -1.2379 C.2       1 <0>         0.5405
      5 O1          0.0664   -0.7818   -2.2252 O.2       1 <0>        -0.5193
      6 N1          2.0506   -0.6005   -1.2495 N.am      1 <0>        -0.5147
      7 N2          2.7064   -1.0523   -2.4022 N.am      1 <0>        -0.5225
      8 C4          4.0496   -1.1628   -2.4138 C.2       1 <0>         0.5184
      9 O2          4.6906   -0.8711   -1.4264 O.2       1 <0>        -0.5328
     10 C5          4.7549   -1.6488   -3.6537 C.3       1 <0>        -0.1015
     11 C6          6.2638   -1.6812   -3.4024 C.3       1 <0>        -0.1350
     12 C7          4.2653   -3.0563   -4.0004 C.3       1 <0>        -0.1502
     13 S1         -1.6997   -0.6320    0.0149 S.3       1 <0>         0.1131
     14 C8         -2.3349   -0.1100    1.5733 C.2       1 <0>         0.1798
     15 N3         -1.6924    0.5807    2.4864 N.2       1 <0>        -0.2882
     16 N4         -2.4582    0.7855    3.4981 N.2       1 <0>        -0.2433
     17 C9         -3.6249    0.2427    3.2931 C.2       1 <0>         0.1311
     18 N5         -3.5903   -0.3421    2.0573 N.pl3     1 <0>        -0.2969
     19 N6         -4.6009   -1.0206    1.4373 N.3       1 <0>        -0.5838
     20 C10        -4.7973    0.2614    4.2398 C.3       1 <0>         0.2200
     21 N7         -5.6229    1.4414    3.9713 N.pl3     1 <0>        -0.7494
     22 C11        -6.7758    1.6759    4.7291 C.ar      1 <0>         0.1790
     23 C12        -7.1345    0.7933    5.7393 C.ar      1 <0>        -0.1558
     24 C13        -8.2722    1.0257    6.4870 C.ar      1 <0>        -0.1026
     25 C14        -9.0564    2.1403    6.2290 C.ar      1 <0>         0.0760
     26 C15        -8.6991    3.0221    5.2198 C.ar      1 <0>        -0.1581
     27 C16        -7.5586    2.7943    4.4749 C.ar      1 <0>        -0.1476
     28 O3        -10.1766    2.3684    6.9658 O.3       1 <0>        -0.3208
     29 C17       -10.9370    3.5352    6.6459 C.3       1 <0>         0.0283
     30 H2          1.0039    1.9031    0.0027 H         1 <0>         0.0760
     31 H3         -0.5459    1.8868   -0.8726 H         1 <0>         0.0764
     32 H4         -0.5289    1.8773    0.9072 H         1 <0>         0.0907
     33 H5          2.5633   -0.3672   -0.4598 H         1 <0>         0.4356
     34 H6          2.1937   -1.2857   -3.1919 H         1 <0>         0.4335
     35 H7          4.5390   -0.9745   -4.4824 H         1 <0>         0.1057
     36 H8          6.4798   -2.3554   -2.5737 H         1 <0>         0.0650
     37 H9          6.7740   -2.0327   -4.2992 H         1 <0>         0.0686
     38 H10         6.6126   -0.6785   -3.1554 H         1 <0>         0.0647
     39 H11         4.7755   -3.4078   -4.8972 H         1 <0>         0.0757
     40 H12         4.4813   -3.7305   -3.1716 H         1 <0>         0.0646
     41 H13         3.1904   -3.0332   -4.1794 H         1 <0>         0.0616
     42 H14        -4.5694   -2.0032    1.6645 H         1 <0>         0.3702
     43 H15        -5.4990   -0.6241    1.6706 H         1 <0>         0.3810
     44 H16        -5.3939   -0.6396    4.0970 H         1 <0>         0.0742
     45 H17        -4.4344    0.2979    5.2669 H         1 <0>         0.1021
     46 H18        -5.3704    2.0603    3.2683 H         1 <0>         0.4028
     47 H19        -6.5241   -0.0748    5.9401 H         1 <0>         0.1271
     48 H20        -8.5515    0.3392    7.2726 H         1 <0>         0.1317
     49 H21        -9.3105    3.8895    5.0194 H         1 <0>         0.1289
     50 H22        -7.2780    3.4836    3.6923 H         1 <0>         0.1237
     51 H23       -10.3154    4.4210    6.7762 H         1 <0>         0.0537
     52 H24       -11.2740    3.4768    5.6109 H         1 <0>         0.0534
     53 H25       -11.8017    3.5977    7.3066 H         1 <0>         0.0989
@<TRIPOS>BOND
     1    1    2 1
     2    1   30 1
     3    1   31 1
     4    1   32 1
     5    2    3 1
     6    2    4 1
     7    2   13 1
     8    4    5 2
     9    4    6 am
    10    6    7 1
    11    6   33 1
    12    7    8 am
    13    7   34 1
    14    8    9 2
    15    8   10 1
    16   10   11 1
    17   10   12 1
    18   10   35 1
    19   11   36 1
    20   11   37 1
    21   11   38 1
    22   12   39 1
    23   12   40 1
    24   12   41 1
    25   13   14 1
    26   14   18 1
    27   14   15 2
    28   15   16 1
    29   16   17 2
    30   17   18 1
    31   17   20 1
    32   18   19 1
    33   19   42 1
    34   19   43 1
    35   20   21 1
    36   20   44 1
    37   20   45 1
    38   21   22 1
    39   21   46 1
    40   22   27 ar
    41   22   23 ar
    42   23   24 ar
    43   23   47 1
    44   24   25 ar
    45   24   48 1
    46   25   26 ar
    47   25   28 1
    48   26   27 ar
    49   26   49 1
    50   27   50 1
    51   28   29 1
    52   29   51 1
    53   29   52 1
    54   29   53 1
@<TRIPOS>MOLECULE
ZINC06134160
   67    69     0     0     0
SMALL
USER_CHARGES
4-amino-N'-[(4-fluorophenyl)-(isopentylcarbamoyl)methyl]-N'-[(3-methoxyphenyl)methyl]isothiazole-3,5-dicarboxamide
@<TRIPOS>ATOM
      1 C1         -2.5939   -0.6420    7.2861 C.3       1 <0>        -0.1530
      2 C2         -3.0009   -1.0870    5.8799 C.3       1 <0>        -0.0924
      3 C3         -3.7398   -2.4242    5.9621 C.3       1 <0>        -0.1485
      4 C4         -3.9201   -0.0339    5.2578 C.3       1 <0>        -0.1283
      5 C5         -3.1428    1.2692    5.0609 C.3       1 <0>         0.1191
      6 N1         -4.0229    2.2776    4.4652 N.am      1 <0>        -0.7217
      7 C6         -3.5508    3.5117    4.1996 C.2       1 <0>         0.5145
      8 O1         -2.3974    3.7875    4.4538 O.2       1 <0>        -0.5121
      9 C7         -4.4561    4.5490    3.5869 C.3       1 <0>         0.1760
     10 H1         -5.3223    4.0585    3.1427 H         1 <0>         0.1268
     11 C8         -4.9149    5.5089    4.6542 C.ar      1 <0>        -0.1120
     12 C9         -4.0708    6.5139    5.0884 C.ar      1 <0>        -0.0734
     13 C10        -4.4926    7.3982    6.0631 C.ar      1 <0>        -0.1516
     14 C11        -5.7567    7.2700    6.6132 C.ar      1 <0>         0.1085
     15 C12        -6.5992    6.2596    6.1815 C.ar      1 <0>        -0.1516
     16 C13        -6.1775    5.3802    5.2024 C.ar      1 <0>        -0.0688
     17 F1         -6.1677    8.1300    7.5707 F         1 <0>        -0.1365
     18 N2         -3.7261    5.2835    2.5506 N.am      1 <0>        -0.5917
     19 C14        -2.3379    5.6906    2.7816 C.3       1 <0>         0.1300
     20 C15        -1.4102    4.7350    2.0764 C.ar      1 <0>        -0.0487
     21 C16        -1.9290    3.6992    1.3212 C.ar      1 <0>        -0.1458
     22 C17        -1.0806    2.8207    0.6735 C.ar      1 <0>        -0.0737
     23 C18         0.2882    2.9759    0.7788 C.ar      1 <0>        -0.2078
     24 C19         0.8111    4.0144    1.5354 C.ar      1 <0>         0.1348
     25 C20        -0.0425    4.8914    2.1892 C.ar      1 <0>        -0.1362
     26 O2          2.1571    4.1692    1.6405 O.3       1 <0>        -0.3158
     27 C21         2.9750    3.2258    0.9454 C.3       1 <0>         0.0274
     28 C22        -4.3316    5.5847    1.3848 C.2       1 <0>         0.6307
     29 O3         -5.4961    5.2783    1.2069 O.2       1 <0>        -0.5325
     30 C23        -3.5886    6.2805    0.3323 C.2       1 <0>        -0.3960
     31 C24        -4.0295    6.7272   -0.9147 C.2       1 <0>         0.2795
     32 C25        -3.0195    7.3527   -1.6457 C.2       1 <0>        -0.0403
     33 N3         -1.8176    7.4571   -1.1233 N.2       1 <0>        -0.4518
     34 S1         -1.8827    6.7905    0.3034 S.3       1 <0>         0.4769
     35 C26        -3.2968    7.8906   -2.9902 C.2       1 <0>         0.6018
     36 O4         -4.4107    7.7901   -3.4674 O.2       1 <0>        -0.5429
     37 N4         -2.3156    8.4935   -3.6903 N.am      1 <0>        -0.8310
     38 N5         -5.3293    6.5671   -1.3759 N.pl3     1 <0>        -0.8052
     39 H2         -1.9390   -1.3923    7.7293 H         1 <0>         0.0563
     40 H3         -2.0675    0.3107    7.2275 H         1 <0>         0.0577
     41 H4         -3.4850   -0.5274    7.9031 H         1 <0>         0.0556
     42 H5         -2.1097   -1.2015    5.2629 H         1 <0>         0.0727
     43 H6         -4.0298   -2.7412    4.9603 H         1 <0>         0.0549
     44 H7         -3.0849   -3.1745    6.4053 H         1 <0>         0.0570
     45 H8         -4.6309   -2.3097    6.5791 H         1 <0>         0.0555
     46 H9         -4.7676    0.1451    5.9195 H         1 <0>         0.0708
     47 H10        -4.2811   -0.3909    4.2933 H         1 <0>         0.0700
     48 H11        -2.2952    1.0902    4.3992 H         1 <0>         0.0695
     49 H12        -2.7817    1.6262    6.0254 H         1 <0>         0.0729
     50 H13        -4.9453    2.0570    4.2619 H         1 <0>         0.4016
     51 H14        -3.0829    6.6105    4.6629 H         1 <0>         0.1394
     52 H15        -3.8345    8.1858    6.3993 H         1 <0>         0.1399
     53 H16        -7.5853    6.1584    6.6101 H         1 <0>         0.1400
     54 H17        -6.8345    4.5920    4.8655 H         1 <0>         0.1366
     55 H18        -2.1286    5.6774    3.8513 H         1 <0>         0.1409
     56 H19        -2.1853    6.6978    2.3939 H         1 <0>         0.0866
     57 H20        -2.9987    3.5762    1.2376 H         1 <0>         0.1156
     58 H21        -1.4882    2.0121    0.0848 H         1 <0>         0.1214
     59 H22         0.9506    2.2891    0.2729 H         1 <0>         0.1263
     60 H23         0.3622    5.6978    2.7828 H         1 <0>         0.1344
     61 H24         4.0256    3.4630    1.1126 H         1 <0>         0.1009
     62 H25         2.7572    3.2728   -0.1216 H         1 <0>         0.0551
     63 H26         2.7659    2.2219    1.3150 H         1 <0>         0.0553
     64 H27        -1.4270    8.5737   -3.3097 H         1 <0>         0.4116
     65 H28        -2.4980    8.8474   -4.5749 H         1 <0>         0.4094
     66 H29        -5.9896    6.1232   -0.8210 H         1 <0>         0.4161
     67 H30        -5.5771    6.8992   -2.2529 H         1 <0>         0.4193
@<TRIPOS>BOND
     1    1    2 1
     2    1   39 1
     3    1   40 1
     4    1   41 1
     5    2    3 1
     6    2    4 1
     7    2   42 1
     8    3   43 1
     9    3   44 1
    10    3   45 1
    11    4    5 1
    12    4   46 1
    13    4   47 1
    14    5    6 1
    15    5   48 1
    16    5   49 1
    17    6    7 am
    18    6   50 1
    19    7    8 2
    20    7    9 1
    21    9   10 1
    22    9   11 1
    23    9   18 1
    24   11   16 ar
    25   11   12 ar
    26   12   13 ar
    27   12   51 1
    28   13   14 ar
    29   13   52 1
    30   14   15 ar
    31   14   17 1
    32   15   16 ar
    33   15   53 1
    34   16   54 1
    35   18   19 1
    36   18   28 am
    37   19   20 1
    38   19   55 1
    39   19   56 1
    40   20   25 ar
    41   20   21 ar
    42   21   22 ar
    43   21   57 1
    44   22   23 ar
    45   22   58 1
    46   23   24 ar
    47   23   59 1
    48   24   25 ar
    49   24   26 1
    50   25   60 1
    51   26   27 1
    52   27   61 1
    53   27   62 1
    54   27   63 1
    55   28   29 2
    56   28   30 1
    57   30   34 1
    58   30   31 2
    59   31   32 1
    60   31   38 1
    61   32   33 2
    62   32   35 1
    63   33   34 1
    64   35   36 2
    65   35   37 am
    66   37   64 1
    67   37   65 1
    68   38   66 1
    69   38   67 1
@<TRIPOS>MOLECULE
ZINC15135153
   69    68     0     0     0
SMALL
USER_CHARGES
tert-butyl N-[(1S)-1-[[(1S)-1-[[(1S)-1-(hydrazinecarbonyl)-2-methyl-propyl]carbamoyl]-2-methyl-propyl]carbamoyl]-2-methyl-propyl]carbamate
@<TRIPOS>ATOM
      1 C1         -1.8214    3.8937    6.4483 C.3       1 <0>        -0.1563
      2 C2         -1.3600    2.8220    5.4586 C.3       1 <0>        -0.0999
      3 C3         -2.4286    1.7322    5.3521 C.3       1 <0>        -0.1398
      4 C4         -1.1410    3.4575    4.0841 C.3       1 <0>         0.1355
      5 H1         -2.0595    3.9463    3.7593 H         1 <0>         0.1154
      6 C5         -0.0340    4.4763    4.1724 C.2       1 <0>         0.5222
      7 O1          1.1022    4.1635    3.8859 O.2       1 <0>        -0.5300
      8 N1         -0.3067    5.7350    4.5696 N.am      1 <0>        -0.7059
      9 C6          0.7454    6.7543    4.5473 C.3       1 <0>         0.1378
     10 H2          1.7012    6.2955    4.8001 H         1 <0>         0.1129
     11 C7          0.8292    7.3701    3.1492 C.3       1 <0>        -0.1012
     12 C8         -0.5078    8.0274    2.8005 C.3       1 <0>        -0.1514
     13 C9          1.9380    8.4240    3.1218 C.3       1 <0>        -0.1568
     14 C10         0.4235    7.8305    5.5518 C.2       1 <0>         0.5188
     15 O2         -0.7309    8.0644    5.8411 O.2       1 <0>        -0.5192
     16 N2          1.4184    8.5332    6.1288 N.am      1 <0>        -0.5720
     17 N3          1.1349    9.4353    7.1146 N.3       1 <0>        -0.6011
     18 N4         -0.7728    2.4188    3.1189 N.am      1 <0>        -0.7090
     19 C11        -1.7329    1.7086    2.4942 C.2       1 <0>         0.5220
     20 O3         -2.9002    1.9986    2.6502 O.2       1 <0>        -0.5230
     21 C12        -1.3558    0.5579    1.5971 C.3       1 <0>         0.1528
     22 H3         -0.6260   -0.0737    2.1036 H         1 <0>         0.1180
     23 C13        -0.7493    1.0994    0.3009 C.3       1 <0>        -0.1035
     24 C14        -0.2236   -0.0647   -0.5414 C.3       1 <0>        -0.1396
     25 C15        -1.8211    1.8555   -0.4867 C.3       1 <0>        -0.1494
     26 N5         -2.5508   -0.2301    1.2852 N.am      1 <0>        -0.6933
     27 C16        -2.4321   -1.5300    0.9496 C.2       1 <0>         0.6559
     28 O4         -1.3339   -2.0484    0.9058 O.2       1 <0>        -0.5612
     29 O5         -3.5303   -2.2543    0.6630 O.3       1 <0>        -0.3619
     30 C17        -3.3271   -3.6479    0.3098 C.3       1 <0>         0.1376
     31 C18        -2.6471   -4.3747    1.4718 C.3       1 <0>        -0.1840
     32 C19        -4.6791   -4.3029    0.0198 C.3       1 <0>        -0.1425
     33 C20        -2.4411   -3.7348   -0.9346 C.3       1 <0>        -0.1842
     34 H4         -2.6828    4.4206    6.0379 H         1 <0>         0.0631
     35 H5         -2.0990    3.4223    7.3910 H         1 <0>         0.0690
     36 H6         -1.0109    4.6018    6.6210 H         1 <0>         0.0588
     37 H7         -0.4261    2.3822    5.8085 H         1 <0>         0.0802
     38 H8         -2.0999    0.9687    4.6470 H         1 <0>         0.0507
     39 H9         -2.5846    1.2795    6.3313 H         1 <0>         0.0572
     40 H10        -3.3625    2.1721    5.0022 H         1 <0>         0.0689
     41 H11        -1.1995    5.9660    4.8704 H         1 <0>         0.4146
     42 H12         1.0513    6.5899    2.4212 H         1 <0>         0.0916
     43 H13        -0.7299    8.8076    3.5285 H         1 <0>         0.0597
     44 H14        -0.4481    8.4661    1.8045 H         1 <0>         0.0608
     45 H15        -1.2977    7.2766    2.8200 H         1 <0>         0.0596
     46 H16         2.0001    8.8602    2.1248 H         1 <0>         0.0699
     47 H17         1.7141    9.2060    3.8473 H         1 <0>         0.0538
     48 H18         2.8899    7.9565    3.3736 H         1 <0>         0.0631
     49 H19         2.3358    8.3982    5.8441 H         1 <0>         0.4034
     50 H20         1.9757    9.8820    7.4487 H         1 <0>         0.3607
     51 H21         0.4640   10.1188    6.7972 H         1 <0>         0.3490
     52 H22         0.1620    2.2421    2.9294 H         1 <0>         0.4133
     53 H23         0.0717    1.7757    0.5387 H         1 <0>         0.0854
     54 H24        -1.0446   -0.7410   -0.7792 H         1 <0>         0.0606
     55 H25         0.2085    0.3211   -1.4647 H         1 <0>         0.0532
     56 H26         0.5400   -0.6034    0.0198 H         1 <0>         0.0643
     57 H27        -2.6060    1.1625   -0.7898 H         1 <0>         0.0597
     58 H28        -2.2492    2.6374    0.1406 H         1 <0>         0.0560
     59 H29        -1.3718    2.3054   -1.3721 H         1 <0>         0.0608
     60 H30        -3.4274    0.1837    1.3202 H         1 <0>         0.4159
     61 H31        -3.2783   -4.3129    2.3582 H         1 <0>         0.0594
     62 H32        -2.4946   -5.4209    1.2066 H         1 <0>         0.0711
     63 H33        -1.6839   -3.9081    1.6783 H         1 <0>         0.0879
     64 H34        -5.1636   -3.7851   -0.8080 H         1 <0>         0.0670
     65 H35        -4.5266   -5.3491   -0.2454 H         1 <0>         0.0816
     66 H36        -5.3104   -4.2410    0.9063 H         1 <0>         0.0671
     67 H37        -1.4779   -3.2682   -0.7280 H         1 <0>         0.0887
     68 H38        -2.2886   -4.7810   -1.1997 H         1 <0>         0.0711
     69 H39        -2.9255   -3.2170   -1.7624 H         1 <0>         0.0594
@<TRIPOS>BOND
     1    1    2 1
     2    1   34 1
     3    1   35 1
     4    1   36 1
     5    2    3 1
     6    2    4 1
     7    2   37 1
     8    3   38 1
     9    3   39 1
    10    3   40 1
    11    4    5 1
    12    4    6 1
    13    4   18 1
    14    6    7 2
    15    6    8 am
    16    8    9 1
    17    8   41 1
    18    9   10 1
    19    9   11 1
    20    9   14 1
    21   11   12 1
    22   11   13 1
    23   11   42 1
    24   12   43 1
    25   12   44 1
    26   12   45 1
    27   13   46 1
    28   13   47 1
    29   13   48 1
    30   14   15 2
    31   14   16 am
    32   16   17 1
    33   16   49 1
    34   17   50 1
    35   17   51 1
    36   18   19 am
    37   18   52 1
    38   19   20 2
    39   19   21 1
    40   21   22 1
    41   21   23 1
    42   21   26 1
    43   23   24 1
    44   23   25 1
    45   23   53 1
    46   24   54 1
    47   24   55 1
    48   24   56 1
    49   25   57 1
    50   25   58 1
    51   25   59 1
    52   26   27 am
    53   26   60 1
    54   27   28 2
    55   27   29 1
    56   29   30 1
    57   30   31 1
    58   30   32 1
    59   30   33 1
    60   31   61 1
    61   31   62 1
    62   31   63 1
    63   32   64 1
    64   32   65 1
    65   32   66 1
    66   33   67 1
    67   33   68 1
    68   33   69 1
@<TRIPOS>MOLECULE
ZINC31161890
   75    74     0     0     0
SMALL
USER_CHARGES
[(1R,3R,4R)-3,4-dihydroxy-4,8-dimethyl-1-[(E)-1-methyl-3-[(2R,3R,4S,5S)-2,3,4,5,6-pentahydroxyhexoxy]prop-1-enyl]non-7-enyl] acetate
@<TRIPOS>ATOM
      1 C1         -1.4138   12.0119   -6.7238 C.3       1 <0>        -0.1189
      2 C2         -1.2978   11.8297   -8.2152 C.2       1 <0>        -0.1343
      3 C3         -0.3276   11.1036   -8.7129 C.2       1 <0>        -0.1682
      4 C4          0.7476   10.5603   -7.8075 C.3       1 <0>        -0.0942
      5 C5          0.8045    9.0371   -7.9402 C.3       1 <0>        -0.0927
      6 C6          1.8961    8.4855   -7.0210 C.3       1 <0>         0.1551
      7 C7          3.2249    9.1754   -7.3361 C.3       1 <0>        -0.1858
      8 C8          2.0381    6.9786   -7.2450 C.3       1 <0>         0.0948
      9 H1          2.2520    6.7504   -8.2996 H         1 <0>         0.0501
     10 C9          3.1297    6.4270   -6.3258 C.3       1 <0>        -0.1709
     11 C10         3.3585    4.9466   -6.6371 C.3       1 <0>         0.1323
     12 H2          2.4160    4.3806   -6.6005 H         1 <0>         0.0897
     13 C11         4.3439    4.3726   -5.6519 C.2       1 <0>        -0.1221
     14 C12         3.9631    3.4439   -4.8101 C.2       1 <0>        -0.1271
     15 C13         4.9215    2.9367   -3.7636 C.3       1 <0>         0.0827
     16 O1          4.2472    2.8390   -2.5075 O.3       1 <0>        -0.3752
     17 C14         5.0713    2.3647   -1.4407 C.3       1 <0>         0.0751
     18 C15         4.2499    2.3007   -0.1515 C.3       1 <0>         0.1360
     19 H3          3.7373    3.2544    0.0425 H         1 <0>         0.0607
     20 C16         5.1610    1.9130    1.0150 C.3       1 <0>         0.1082
     21 H4          5.6736    0.9593    0.8210 H         1 <0>         0.0619
     22 C17         4.3396    1.8490    2.3042 C.3       1 <0>         0.0983
     23 H5          3.8270    2.8027    2.4983 H         1 <0>         0.0709
     24 C18         5.2507    1.4613    3.4706 C.3       1 <0>         0.0914
     25 H6          5.7633    0.5076    3.2763 H         1 <0>         0.0676
     26 C19         4.4293    1.3972    4.7599 C.3       1 <0>         0.0526
     27 O2          5.2534    0.9230    5.8266 O.3       1 <0>        -0.6030
     28 O3          6.2845    2.4376    3.6125 O.3       1 <0>        -0.5892
     29 O4          3.3058    0.8726    2.1624 O.3       1 <0>        -0.5801
     30 O5          6.1948    2.8893    1.1568 O.3       1 <0>        -0.5866
     31 O6          3.2161    1.3244   -0.2933 O.3       1 <0>        -0.5825
     32 C20         5.7674    4.8669   -5.6352 C.3       1 <0>        -0.1283
     33 O7          3.8852    4.8108   -7.9834 O.3       1 <0>        -0.3513
     34 C21         2.9922    4.6715   -8.9759 C.2       1 <0>         0.4601
     35 O8          1.8097    4.6634   -8.7279 O.2       1 <0>        -0.5098
     36 C22         3.4646    4.5254  -10.3994 C.3       1 <0>        -0.1530
     37 O9          0.7970    6.3343   -6.9507 O.3       1 <0>        -0.5789
     38 O10         1.5420    8.7333   -5.6589 O.3       1 <0>        -0.5706
     39 C23        -2.2980   12.4826   -9.1341 C.3       1 <0>        -0.1187
     40 H7         -2.2828   12.6476   -6.4986 H         1 <0>         0.0577
     41 H8         -0.5004   12.4904   -6.3407 H         1 <0>         0.0649
     42 H9         -1.5429   11.0307   -6.2435 H         1 <0>         0.0691
     43 H10        -0.2978   10.8905   -9.7917 H         1 <0>         0.1066
     44 H11         1.7191   10.9898   -8.0932 H         1 <0>         0.0686
     45 H12         0.5200   10.8293   -6.7655 H         1 <0>         0.0804
     46 H13        -0.1670    8.6076   -7.6545 H         1 <0>         0.0783
     47 H14         1.0321    8.7681   -8.9822 H         1 <0>         0.0679
     48 H15         4.0097    8.7788   -6.6752 H         1 <0>         0.0612
     49 H16         3.1228   10.2587   -7.1750 H         1 <0>         0.0750
     50 H17         3.4975    8.9846   -8.3846 H         1 <0>         0.0640
     51 H18         4.0635    6.9848   -6.4898 H         1 <0>         0.0887
     52 H19         2.8162    6.5370   -5.2772 H         1 <0>         0.0948
     53 H20         2.9438    3.0343   -4.8671 H         1 <0>         0.1231
     54 H21         5.2942    1.9445   -4.0579 H         1 <0>         0.0618
     55 H22         5.7674    3.6339   -3.6724 H         1 <0>         0.0677
     56 H23         5.4471    1.3605   -1.6863 H         1 <0>         0.0534
     57 H24         5.9204    3.0498   -1.3008 H         1 <0>         0.0734
     58 H25         4.0534    2.4014    5.0055 H         1 <0>         0.0542
     59 H26         3.5802    0.7120    4.6201 H         1 <0>         0.0506
     60 H27         4.8339    0.8099    6.8372 H         1 <0>         0.4187
     61 H28         7.0404    2.3272    4.4040 H         1 <0>         0.4248
     62 H29         2.6091    0.6847    2.9927 H         1 <0>         0.4130
     63 H30         6.9507    2.7789    1.9483 H         1 <0>         0.4157
     64 H31         2.5194    1.1365    0.5370 H         1 <0>         0.4082
     65 H32         6.3312    4.3347   -4.8549 H         1 <0>         0.0732
     66 H33         5.7782    5.9463   -5.4237 H         1 <0>         0.0683
     67 H34         6.2318    4.6805   -6.6148 H         1 <0>         0.0765
     68 H35         2.5952    4.4236  -11.0656 H         1 <0>         0.1047
     69 H36         4.0990    3.6309  -10.4852 H         1 <0>         0.1025
     70 H37         4.0444    5.4150  -10.6864 H         1 <0>         0.1014
     71 H38         0.7056    5.2431   -7.0547 H         1 <0>         0.4022
     72 H39         2.2101    8.4060   -4.8486 H         1 <0>         0.3947
     73 H40        -2.0518   12.2373  -10.1777 H         1 <0>         0.0593
     74 H41        -2.2650   13.5734   -8.9963 H         1 <0>         0.0654
     75 H42        -3.3073   12.1137   -8.8990 H         1 <0>         0.0637
@<TRIPOS>BOND
     1    1    2 1
     2    1   40 1
     3    1   41 1
     4    1   42 1
     5    2    3 2
     6    2   39 1
     7    3    4 1
     8    3   43 1
     9    4    5 1
    10    4   44 1
    11    4   45 1
    12    5    6 1
    13    5   46 1
    14    5   47 1
    15    6    7 1
    16    6    8 1
    17    6   38 1
    18    7   48 1
    19    7   49 1
    20    7   50 1
    21    8    9 1
    22    8   10 1
    23    8   37 1
    24   10   11 1
    25   10   51 1
    26   10   52 1
    27   11   12 1
    28   11   13 1
    29   11   33 1
    30   13   14 2
    31   13   32 1
    32   14   15 1
    33   14   53 1
    34   15   16 1
    35   15   54 1
    36   15   55 1
    37   16   17 1
    38   17   18 1
    39   17   56 1
    40   17   57 1
    41   18   19 1
    42   18   20 1
    43   18   31 1
    44   20   21 1
    45   20   22 1
    46   20   30 1
    47   22   23 1
    48   22   24 1
    49   22   29 1
    50   24   25 1
    51   24   26 1
    52   24   28 1
    53   26   27 1
    54   26   58 1
    55   26   59 1
    56   27   60 1
    57   28   61 1
    58   29   62 1
    59   30   63 1
    60   31   64 1
    61   32   65 1
    62   32   66 1
    63   32   67 1
    64   33   34 1
    65   34   35 2
    66   34   36 1
    67   36   68 1
    68   36   69 1
    69   36   70 1
    70   37   71 1
    71   38   72 1
    72   39   73 1
    73   39   74 1
    74   39   75 1
@<TRIPOS>MOLECULE
ZINC41717295
   56    56     0     0     0
SMALL
USER_CHARGES

@<TRIPOS>ATOM
      1 C1         -0.0187    1.5249   -0.0081 C.3       1 <0>        -0.1849
      2 C2          0.0015   -0.0049   -0.0204 C.3       1 <0>         0.0232
      3 C3          0.7499   -0.5150    1.2127 C.3       1 <0>        -0.1863
      4 N1         -1.3767   -0.5130   -0.0017 N.4       1 <0>        -0.3840
      5 C4         -2.0953   -0.0232   -1.1857 C.3       1 <0>        -0.0576
      6 C5         -1.3573   -1.9818   -0.0135 C.3       1 <0>        -0.0114
      7 C6         -2.7852   -2.5119    0.1316 C.3       1 <0>        -0.1645
      8 C7         -2.7650   -4.0417    0.1193 C.3       1 <0>         0.1222
      9 N2         -4.1323   -4.5492    0.2582 N.am      1 <0>        -0.7066
     10 C8         -4.3597   -5.8776    0.2730 C.2       1 <0>         0.5169
     11 O1         -3.4319   -6.6533    0.1713 O.2       1 <0>        -0.5042
     12 C9         -5.7534   -6.3949    0.4147 C.2       1 <0>         0.5069
     13 O2         -6.6814   -5.6191    0.5164 O.2       1 <0>        -0.4974
     14 N3         -5.9808   -7.7233    0.4295 N.am      1 <0>        -0.6340
     15 C10        -7.2720   -8.2091    0.6589 C.ar      1 <0>         0.1283
     16 C11        -8.3720   -7.5166    0.1689 C.ar      1 <0>        -0.1067
     17 C12        -9.6482   -7.9955    0.3943 C.ar      1 <0>        -0.1559
     18 C13        -9.8337   -9.1676    1.1101 C.ar      1 <0>         0.1066
     19 C14        -8.7337   -9.8639    1.6024 C.ar      1 <0>         0.1193
     20 C15        -7.4543   -9.3871    1.3717 C.ar      1 <0>        -0.1903
     21 O3         -8.9151  -11.0139    2.3053 O.3       1 <0>        -0.2723
     22 C16        -7.7411  -11.6758    2.7804 C.3       1 <0>         0.0364
     23 C17        -8.1358  -12.9216    3.5309 C.2       1 <0>         0.5179
     24 O4         -9.3071  -13.2138    3.6475 O.2       1 <0>        -0.5106
     25 N4         -7.1872  -13.7110    4.0726 N.am      1 <0>        -0.8502
     26 O5        -11.0910   -9.6373    1.3319 O.3       1 <0>        -0.2991
     27 C18       -12.1732   -8.8717    0.7982 C.3       1 <0>         0.0237
     28 H1          1.0039    1.9019   -0.0220 H         1 <0>         0.1064
     29 H2         -0.5519    1.8883   -0.8866 H         1 <0>         0.0829
     30 H3         -0.5226    1.8744    0.8931 H         1 <0>         0.0814
     31 H4          0.5053   -0.3544   -0.9216 H         1 <0>         0.1374
     32 H5          0.2460   -0.1655    2.1139 H         1 <0>         0.0818
     33 H6          0.7643   -1.6049    1.2039 H         1 <0>         0.0823
     34 H7          1.7725   -0.1380    1.1988 H         1 <0>         0.1069
     35 H8         -1.5914   -0.3727   -2.0868 H         1 <0>         0.1240
     36 H9         -3.1179   -0.4002   -1.1718 H         1 <0>         0.1251
     37 H10        -2.1097    1.0667   -1.1769 H         1 <0>         0.1278
     38 H11        -0.9337   -2.3320   -0.9548 H         1 <0>         0.1354
     39 H12        -0.7494   -2.3438    0.8156 H         1 <0>         0.1384
     40 H13        -3.2089   -2.1616    1.0728 H         1 <0>         0.0977
     41 H14        -3.3932   -2.1498   -0.6975 H         1 <0>         0.0981
     42 H15        -2.3414   -4.3919   -0.8220 H         1 <0>         0.0857
     43 H16        -2.1571   -4.4037    0.9484 H         1 <0>         0.0854
     44 H17        -4.8738   -3.9293    0.3395 H         1 <0>         0.4171
     45 H18        -5.2489   -8.3423    0.2810 H         1 <0>         0.4236
     46 H19        -8.2295   -6.6026   -0.3886 H         1 <0>         0.1440
     47 H20       -10.5021   -7.4557    0.0125 H         1 <0>         0.1447
     48 H21        -6.5994   -9.9284    1.7491 H         1 <0>         0.1415
     49 H22        -7.1090  -11.9462    1.9346 H         1 <0>         0.0954
     50 H23        -7.1923  -11.0093    3.4457 H         1 <0>         0.0944
     51 H24        -6.2504  -13.4773    3.9794 H         1 <0>         0.4027
     52 H25        -7.4413  -14.5129    4.5557 H         1 <0>         0.4115
     53 H26       -13.1178   -9.3558    1.0461 H         1 <0>         0.1052
     54 H27       -12.1551   -7.8695    1.2264 H         1 <0>         0.0569
     55 H28       -12.0720   -8.8058   -0.2851 H         1 <0>         0.0573
     56 H29        -1.8431   -0.1894    0.8325 H         1 <0>         0.4235
@<TRIPOS>BOND
     1    1    2 1
     2    1   28 1
     3    1   29 1
     4    1   30 1
     5    2    3 1
     6    2    4 1
     7    2   31 1
     8    3   32 1
     9    3   33 1
    10    3   34 1
    11    4    5 1
    12    4    6 1
    13    4   56 1
    14    5   35 1
    15    5   36 1
    16    5   37 1
    17    6    7 1
    18    6   38 1
    19    6   39 1
    20    7    8 1
    21    7   40 1
    22    7   41 1
    23    8    9 1
    24    8   42 1
    25    8   43 1
    26    9   10 am
    27    9   44 1
    28   10   11 2
    29   10   12 1
    30   12   13 2
    31   12   14 am
    32   14   15 1
    33   14   45 1
    34   15   20 ar
    35   15   16 ar
    36   16   17 ar
    37   16   46 1
    38   17   18 ar
    39   17   47 1
    40   18   19 ar
    41   18   26 1
    42   19   20 ar
    43   19   21 1
    44   20   48 1
    45   21   22 1
    46   22   23 1
    47   22   49 1
    48   22   50 1
    49   23   24 2
    50   23   25 am
    51   25   51 1
    52   25   52 1
    53   26   27 1
    54   27   53 1
    55   27   54 1
    56   27   55 1
@<TRIPOS>MOLECULE
ZINC14156526
   59    61     0     0     0
SMALL
USER_CHARGES

@<TRIPOS>ATOM
      1 C1          0.2553   -7.2907    5.7962 C.3       1 <0>        -0.1078
      2 C2         -0.2726   -6.7464    4.4939 C.ar      1 <0>         0.2114
      3 C3         -0.4226   -7.5781    3.3952 C.ar      1 <0>        -0.2503
      4 C4         -0.9119   -7.0368    2.2167 C.ar      1 <0>         0.2108
      5 N1         -1.2191   -5.7509    2.1762 N.ar      1 <0>        -0.5545
      6 C5         -1.0638   -4.9837    3.2443 C.ar      1 <0>         0.5439
      7 N2         -0.6036   -5.4702    4.3868 N.ar      1 <0>        -0.4915
      8 N3         -1.3959   -3.6379    3.1659 N.pl3     1 <0>        -0.6071
      9 C6         -1.1319   -2.8052    4.2198 C.2       1 <0>         0.7061
     10 N4         -0.4669   -3.2574    5.2690 N.2       1 <0>        -0.5633
     11 C7         -0.1999   -2.4393    6.2971 C.2       1 <0>         0.5455
     12 S1         -1.4796   -1.8062    7.2419 S.2       1 <0>        -0.6331
     13 N5          1.0758   -2.1152    6.5867 N.pl3     1 <0>        -0.5942
     14 C8          1.3635   -1.3603    7.7280 C.ar      1 <0>         0.1845
     15 C9          0.6822   -1.6052    8.9127 C.ar      1 <0>        -0.1372
     16 C10         0.9684   -0.8566   10.0440 C.ar      1 <0>         0.1781
     17 C11         1.9349    0.1367    9.9925 C.ar      1 <0>        -0.2903
     18 C12         2.6156    0.3823    8.8093 C.ar      1 <0>         0.1736
     19 C13         2.3346   -0.3692    7.6787 C.ar      1 <0>        -0.1947
     20 O1          3.5621    1.3562    8.7597 O.3       1 <0>        -0.3129
     21 C14         3.8043    2.0874    9.9633 C.3       1 <0>         0.0258
     22 O2          0.3014   -1.0959   11.2036 O.3       1 <0>        -0.3054
     23 C15         0.6470   -0.2870   12.3297 C.3       1 <0>         0.0252
     24 N6         -1.5553   -1.5078    4.1874 N.pl3     1 <0>        -0.7300
     25 C16        -2.3971   -1.0394    3.0837 C.3       1 <0>         0.1054
     26 C17        -2.6370    0.4648    3.2281 C.3       1 <0>        -0.0744
     27 C18        -3.5990    0.9246    2.1631 C.2       1 <0>         0.0319
     28 C19        -3.2664    1.3913    0.9445 C.2       1 <0>         0.0428
     29 N7         -4.4373    1.6921    0.3025 N.pl3     1 <0>        -0.5093
     30 H1         -4.5263    2.0494   -0.5949 H         1 <0>         0.4693
     31 C20        -5.4453    1.3984    1.1517 C.cat     1 <0>         0.3128
     32 N8         -4.9366    0.9352    2.2606 N.pl3     1 <0>        -0.4733
     33 C21        -1.0913   -7.9027    0.9964 C.3       1 <0>        -0.1087
     34 H2         -0.5800   -7.5653    6.4404 H         1 <0>         0.0893
     35 H3          0.8678   -8.1708    5.6005 H         1 <0>         0.0840
     36 H4          0.8598   -6.5297    6.2897 H         1 <0>         0.0847
     37 H5         -0.1635   -8.6248    3.4560 H         1 <0>         0.1525
     38 H6         -1.8151   -3.2877    2.3643 H         1 <0>         0.4319
     39 H7          1.7944   -2.4056    6.0035 H         1 <0>         0.4136
     40 H8         -0.0707   -2.3785    8.9529 H         1 <0>         0.1562
     41 H9          2.1574    0.7196   10.8741 H         1 <0>         0.1380
     42 H10         2.8678   -0.1809    6.7586 H         1 <0>         0.1336
     43 H11         4.5805    2.8319    9.7862 H         1 <0>         0.1045
     44 H12         2.8871    2.5861   10.2763 H         1 <0>         0.0570
     45 H13         4.1302    1.4018   10.7456 H         1 <0>         0.0580
     46 H14         0.0421   -0.5808   13.1875 H         1 <0>         0.1046
     47 H15         1.7024   -0.4241   12.5652 H         1 <0>         0.0566
     48 H16         0.4602    0.7610   12.0953 H         1 <0>         0.0559
     49 H17        -1.2988   -0.8961    4.8952 H         1 <0>         0.4305
     50 H18        -1.8972   -1.2382    2.1358 H         1 <0>         0.0817
     51 H19        -3.3525   -1.5636    3.1077 H         1 <0>         0.0769
     52 H20        -3.0576    0.6728    4.2120 H         1 <0>         0.1135
     53 H21        -1.6915    0.9958    3.1175 H         1 <0>         0.1234
     54 H22        -2.2677    1.5066    0.5497 H         1 <0>         0.2287
     55 H23        -6.4982    1.5225    0.9458 H         1 <0>         0.2683
     56 H24        -2.0934   -8.3315    0.9992 H         1 <0>         0.0895
     57 H25        -0.9572   -7.2984    0.0992 H         1 <0>         0.0834
     58 H26        -0.3530   -8.7045    1.0081 H         1 <0>         0.0872
     59 H27        -5.4456    0.6460    3.0341 H         1 <0>         0.4671
@<TRIPOS>BOND
     1    1    2 1
     2    1   34 1
     3    1   35 1
     4    1   36 1
     5    2    7 ar
     6    2    3 ar
     7    3    4 ar
     8    3   37 1
     9    4    5 ar
    10    4   33 1
    11    5    6 ar
    12    6    7 ar
    13    6    8 1
    14    8    9 1
    15    8   38 1
    16    9   10 2
    17    9   24 1
    18   10   11 1
    19   11   12 2
    20   11   13 1
    21   13   14 1
    22   13   39 1
    23   14   19 ar
    24   14   15 ar
    25   15   16 ar
    26   15   40 1
    27   16   17 ar
    28   16   22 1
    29   17   18 ar
    30   17   41 1
    31   18   19 ar
    32   18   20 1
    33   19   42 1
    34   20   21 1
    35   21   43 1
    36   21   44 1
    37   21   45 1
    38   22   23 1
    39   23   46 1
    40   23   47 1
    41   23   48 1
    42   24   25 1
    43   24   49 1
    44   25   26 1
    45   25   50 1
    46   25   51 1
    47   26   27 1
    48   26   52 1
    49   26   53 1
    50   27   32 1
    51   27   28 2
    52   28   29 1
    53   28   54 1
    54   29   30 1
    55   29   31 1
    56   31   32 2
    57   31   55 1
    58   32   59 1
    59   33   56 1
    60   33   57 1
    61   33   58 1
@<TRIPOS>MOLECULE
ZINC04388372
   70    72     0     0     0
SMALL
USER_CHARGES
4-amino-N'-[1-(cyclopentylcarbamoyl)butyl]-N'-(3-morpholinopropyl)isothiazole-3,5-dicarboxamide
@<TRIPOS>ATOM
      1 C1          0.8481   -1.6473    3.9313 C.3       1 <0>        -0.1551
      2 C2          0.0148   -2.3783    2.8767 C.3       1 <0>        -0.1370
      3 C3         -0.3724   -1.4008    1.7652 C.3       1 <0>        -0.1216
      4 C4         -1.1196   -2.1530    0.6621 C.3       1 <0>         0.1147
      5 H1         -0.5330   -3.0170    0.3499 H         1 <0>         0.1045
      6 C5         -1.3310   -1.2372   -0.5159 C.2       1 <0>         0.4984
      7 O1         -2.4271   -0.7624   -0.7259 O.2       1 <0>        -0.5229
      8 N1         -0.3020   -0.9457   -1.3360 N.am      1 <0>        -0.7153
      9 C6         -0.5074   -0.0554   -2.4812 C.3       1 <0>         0.1429
     10 C7         -0.9700   -0.8696   -3.7072 C.3       1 <0>        -0.1356
     11 C8         -0.2683   -0.1835   -4.9055 C.3       1 <0>        -0.1255
     12 C9          1.1201    0.1827   -4.3246 C.3       1 <0>        -0.1261
     13 C10         0.8215    0.6137   -2.8738 C.3       1 <0>        -0.1317
     14 N2         -2.4181   -2.6022    1.1706 N.am      1 <0>        -0.5882
     15 C11        -2.9225   -2.0887    2.4465 C.3       1 <0>         0.1124
     16 C12        -3.8750   -0.9202    2.1852 C.3       1 <0>        -0.1717
     17 C13        -4.3054   -0.3051    3.5184 C.3       1 <0>        -0.0021
     18 C14        -4.5258    1.9206    2.5885 C.3       1 <0>        -0.0424
     19 C15        -5.5266    3.0411    2.2936 C.3       1 <0>         0.0356
     20 O2         -6.1412    3.4583    3.5157 O.3       1 <0>        -0.3571
     21 C16        -6.8269    2.4082    4.2031 C.3       1 <0>         0.0341
     22 C17        -5.8393    1.2813    4.5173 C.3       1 <0>        -0.0383
     23 C18        -3.1485   -3.4879    0.4645 C.2       1 <0>         0.6377
     24 O3         -4.2670   -3.7892    0.8380 O.2       1 <0>        -0.5315
     25 C19        -2.5964   -4.0876   -0.7519 C.2       1 <0>        -0.3964
     26 C20        -3.2132   -4.9224   -1.6854 C.2       1 <0>         0.2839
     27 C21        -2.3545   -5.2922   -2.7207 C.2       1 <0>        -0.0230
     28 N3         -1.1177   -4.8466   -2.7210 N.2       1 <0>        -0.4301
     29 S1         -0.9608   -3.9409   -1.4407 S.3       1 <0>         0.4164
     30 C22        -2.8289   -6.1740   -3.8030 C.2       1 <0>         0.5994
     31 O4         -3.9742   -6.5829   -3.7962 O.2       1 <0>        -0.5371
     32 N4         -1.9933   -6.5269   -4.7998 N.am      1 <0>        -0.8267
     33 N5         -4.5345   -5.3388   -1.5934 N.pl3     1 <0>        -0.7992
     34 H2          0.2637   -0.8298    4.3536 H         1 <0>         0.0526
     35 H3          1.1240   -2.3436    4.7232 H         1 <0>         0.0634
     36 H4          1.7504   -1.2475    3.4684 H         1 <0>         0.0610
     37 H5         -0.8874   -2.7780    3.3397 H         1 <0>         0.0732
     38 H6          0.5992   -3.1957    2.4544 H         1 <0>         0.0757
     39 H7          0.5277   -0.9474    1.3502 H         1 <0>         0.0950
     40 H8         -1.0162   -0.6221    2.1742 H         1 <0>         0.0804
     41 H9          0.5747   -1.3254   -1.1680 H         1 <0>         0.4026
     42 H10        -1.2494    0.7041   -2.2349 H         1 <0>         0.0928
     43 H11        -0.6480   -1.9072   -3.6196 H         1 <0>         0.0688
     44 H12        -2.0531   -0.8131   -3.8160 H         1 <0>         0.0684
     45 H13        -0.8091    0.7132   -5.2081 H         1 <0>         0.0709
     46 H14        -0.1669   -0.8754   -5.7416 H         1 <0>         0.0714
     47 H15         1.5623    1.0071   -4.8841 H         1 <0>         0.0724
     48 H16         1.7796   -0.6850   -4.3368 H         1 <0>         0.0695
     49 H17         0.7241    1.6979   -2.8188 H         1 <0>         0.0773
     50 H18         1.6193    0.2760   -2.2123 H         1 <0>         0.0735
     51 H19        -3.4553   -2.8812    2.9720 H         1 <0>         0.0967
     52 H20        -2.0865   -1.7465    3.0565 H         1 <0>         0.1083
     53 H21        -3.3681   -0.1656    1.5838 H         1 <0>         0.0957
     54 H22        -4.7540   -1.2805    1.6507 H         1 <0>         0.0963
     55 H23        -4.8124   -1.0596    4.1198 H         1 <0>         0.1336
     56 H24        -3.4264    0.0552    4.0529 H         1 <0>         0.1317
     57 H25        -3.7320    2.3015    3.2310 H         1 <0>         0.1394
     58 H26        -4.0968    1.5604    1.6534 H         1 <0>         0.1419
     59 H27        -6.2911    2.6752    1.6081 H         1 <0>         0.0807
     60 H28        -5.0054    3.8850    1.8417 H         1 <0>         0.1408
     61 H29        -7.6291    2.0239    3.5731 H         1 <0>         0.0807
     62 H30        -7.2461    2.7943    5.1322 H         1 <0>         0.1416
     63 H31        -6.3690    0.4544    4.9903 H         1 <0>         0.1413
     64 H32        -5.0664    1.6519    5.1907 H         1 <0>         0.1399
     65 H33        -1.0798   -6.2007   -4.8052 H         1 <0>         0.4121
     66 H34        -2.3054   -7.1070   -5.5118 H         1 <0>         0.4134
     67 H35        -5.0838   -5.0485   -0.8485 H         1 <0>         0.4162
     68 H36        -4.9083   -5.9202   -2.2740 H         1 <0>         0.4224
     69 N6         -5.2401    0.8094    3.2509 N.4       1 <0>        -0.3951
     70 H37        -5.9879    0.4763    2.6312 H         1 <0>         0.4282
@<TRIPOS>BOND
     1    1    2 1
     2    1   34 1
     3    1   35 1
     4    1   36 1
     5    2    3 1
     6    2   37 1
     7    2   38 1
     8    3    4 1
     9    3   39 1
    10    3   40 1
    11    4    5 1
    12    4    6 1
    13    4   14 1
    14    6    7 2
    15    6    8 am
    16    8    9 1
    17    8   41 1
    18    9   13 1
    19    9   10 1
    20    9   42 1
    21   10   11 1
    22   10   43 1
    23   10   44 1
    24   11   12 1
    25   11   45 1
    26   11   46 1
    27   12   13 1
    28   12   47 1
    29   12   48 1
    30   13   49 1
    31   13   50 1
    32   14   15 1
    33   14   23 am
    34   15   16 1
    35   15   51 1
    36   15   52 1
    37   16   17 1
    38   16   53 1
    39   16   54 1
    40   17   55 1
    41   17   56 1
    42   17   69 1
    43   18   19 1
    44   18   57 1
    45   18   58 1
    46   18   69 1
    47   19   20 1
    48   19   59 1
    49   19   60 1
    50   20   21 1
    51   21   22 1
    52   21   61 1
    53   21   62 1
    54   22   63 1
    55   22   64 1
    56   22   69 1
    57   23   24 2
    58   23   25 1
    59   25   29 1
    60   25   26 2
    61   26   27 1
    62   26   33 1
    63   27   28 2
    64   27   30 1
    65   28   29 1
    66   30   31 2
    67   30   32 am
    68   32   65 1
    69   32   66 1
    70   33   67 1
    71   33   68 1
    72   69   70 1
@<TRIPOS>MOLECULE
ZINC06600100
   71    72     0     0     0
SMALL
USER_CHARGES
4-amino-N'-[(3,4-dimethoxyphenyl)-(tert-butylcarbamoyl)methyl]-N'-(3-ethoxypropyl)isothiazole-3,5-dicarboxamide
@<TRIPOS>ATOM
      1 C1         -1.4427    0.6036    3.3882 C.3       1 <0>        -0.1527
      2 C2         -0.0848    1.2479    3.6743 C.3       1 <0>         0.0576
      3 O1          0.7550    1.1193    2.5253 O.3       1 <0>        -0.3854
      4 C3          2.0543    1.6915    2.6880 C.3       1 <0>         0.0704
      5 C4          2.8621    1.4964    1.4034 C.3       1 <0>        -0.1440
      6 C5          4.2531    2.1091    1.5776 C.3       1 <0>         0.0957
      7 N1          5.0311    1.9107    0.3522 N.am      1 <0>        -0.5937
      8 C6          5.9887    0.8056    0.2634 C.3       1 <0>         0.1878
      9 H1          6.9792    1.2004    0.0368 H         1 <0>         0.1010
     10 C7          5.5633   -0.1411   -0.8292 C.ar      1 <0>        -0.0904
     11 C8          4.2332   -0.4968   -0.9545 C.ar      1 <0>        -0.0883
     12 C9          3.8371   -1.3605   -1.9586 C.ar      1 <0>        -0.1735
     13 C10         4.7757   -1.8806   -2.8353 C.ar      1 <0>         0.1096
     14 C11         6.1153   -1.5271   -2.7057 C.ar      1 <0>         0.0988
     15 C12         6.5048   -0.6564   -1.7005 C.ar      1 <0>        -0.1452
     16 O2          7.0402   -2.0345   -3.5639 O.3       1 <0>        -0.3054
     17 C13         8.3963   -1.6273   -3.3713 C.3       1 <0>         0.0261
     18 O3          4.3886   -2.7351   -3.8199 O.3       1 <0>        -0.3059
     19 C14         2.9974   -3.0533   -3.8929 C.3       1 <0>         0.0256
     20 C15         6.0299    0.0697    1.5778 C.2       1 <0>         0.5204
     21 O4          4.9967   -0.2557    2.1233 O.2       1 <0>        -0.5087
     22 N2          7.2149   -0.2268    2.1473 N.am      1 <0>        -0.7143
     23 C16         7.2549   -0.9422    3.4252 C.3       1 <0>         0.1695
     24 C17         6.5688   -2.3009    3.2707 C.3       1 <0>        -0.1648
     25 C18         8.7106   -1.1510    3.8474 C.3       1 <0>        -0.1575
     26 C19         6.5272   -0.1217    4.4920 C.3       1 <0>        -0.1651
     27 C20         4.8658    2.7449   -0.6935 C.2       1 <0>         0.6271
     28 O5          5.4991    2.5694   -1.7180 O.2       1 <0>        -0.5217
     29 C21         3.9244    3.8622   -0.5970 C.2       1 <0>        -0.3930
     30 C22         3.7040    4.9131   -1.4891 C.2       1 <0>         0.2771
     31 C23         2.7148    5.7913   -1.0460 C.2       1 <0>        -0.0355
     32 N3          2.1177    5.5612    0.1024 N.2       1 <0>        -0.4543
     33 S1          2.7537    4.2439    0.6894 S.3       1 <0>         0.4648
     34 C24         2.3434    6.9654   -1.8567 C.2       1 <0>         0.6012
     35 O6          2.9002    7.1724   -2.9178 O.2       1 <0>        -0.5418
     36 N4          1.3867    7.8092   -1.4219 N.am      1 <0>        -0.8307
     37 N5          4.3931    5.0674   -2.6845 N.pl3     1 <0>        -0.8046
     38 H2         -1.9098    1.1025    2.5390 H         1 <0>         0.0624
     39 H3         -1.3024   -0.4523    3.1570 H         1 <0>         0.0631
     40 H4         -2.0833    0.7017    4.2646 H         1 <0>         0.0707
     41 H5          0.3823    0.7490    4.5234 H         1 <0>         0.0488
     42 H6         -0.2251    2.3038    3.9054 H         1 <0>         0.0478
     43 H7          2.5658    1.2018    3.5167 H         1 <0>         0.0573
     44 H8          1.9584    2.7567    2.8987 H         1 <0>         0.0464
     45 H9          2.3506    1.9861    0.5747 H         1 <0>         0.0713
     46 H10         2.9580    0.4313    1.1927 H         1 <0>         0.1016
     47 H11         4.7609    1.6262    2.4125 H         1 <0>         0.1149
     48 H12         4.1576    3.1762    1.7785 H         1 <0>         0.0738
     49 H13         3.5014   -0.0958   -0.2689 H         1 <0>         0.1350
     50 H14         2.7969   -1.6336   -2.0568 H         1 <0>         0.1359
     51 H15         7.5438   -0.3802   -1.5980 H         1 <0>         0.1341
     52 H16         9.0286   -2.1034   -4.1208 H         1 <0>         0.1007
     53 H17         8.4680   -0.5442   -3.4704 H         1 <0>         0.0560
     54 H18         8.7268   -1.9237   -2.3758 H         1 <0>         0.0530
     55 H19         2.4239   -2.1406   -4.0549 H         1 <0>         0.0553
     56 H20         2.8251   -3.7423   -4.7197 H         1 <0>         0.1013
     57 H21         2.6819   -3.5197   -2.9596 H         1 <0>         0.0556
     58 H22         8.0413    0.0335    1.7111 H         1 <0>         0.4014
     59 H23         7.0873   -2.8855    2.5106 H         1 <0>         0.0545
     60 H24         6.5986   -2.8332    4.2214 H         1 <0>         0.0641
     61 H25         5.5317   -2.1522    2.9699 H         1 <0>         0.0802
     62 H26         9.1994   -0.1830    3.9574 H         1 <0>         0.0631
     63 H27         8.7404   -1.6832    4.7981 H         1 <0>         0.0759
     64 H28         9.2291   -1.7355    3.0873 H         1 <0>         0.0631
     65 H29         5.4901    0.0271    4.1912 H         1 <0>         0.0786
     66 H30         6.5569   -0.6540    5.4427 H         1 <0>         0.0656
     67 H31         7.0160    0.8463    4.6020 H         1 <0>         0.0551
     68 H32         0.9425    7.6441   -0.5755 H         1 <0>         0.4116
     69 H33         1.1423    8.5817   -1.9553 H         1 <0>         0.4096
     70 H34         4.1958    5.8194   -3.2645 H         1 <0>         0.4192
     71 H35         5.0719    4.4232   -2.9396 H         1 <0>         0.4166
@<TRIPOS>BOND
     1    1    2 1
     2    1   38 1
     3    1   39 1
     4    1   40 1
     5    2    3 1
     6    2   41 1
     7    2   42 1
     8    3    4 1
     9    4    5 1
    10    4   43 1
    11    4   44 1
    12    5    6 1
    13    5   45 1
    14    5   46 1
    15    6    7 1
    16    6   47 1
    17    6   48 1
    18    7    8 1
    19    7   27 am
    20    8    9 1
    21    8   10 1
    22    8   20 1
    23   10   15 ar
    24   10   11 ar
    25   11   12 ar
    26   11   49 1
    27   12   13 ar
    28   12   50 1
    29   13   14 ar
    30   13   18 1
    31   14   15 ar
    32   14   16 1
    33   15   51 1
    34   16   17 1
    35   17   52 1
    36   17   53 1
    37   17   54 1
    38   18   19 1
    39   19   55 1
    40   19   56 1
    41   19   57 1
    42   20   21 2
    43   20   22 am
    44   22   23 1
    45   22   58 1
    46   23   24 1
    47   23   25 1
    48   23   26 1
    49   24   59 1
    50   24   60 1
    51   24   61 1
    52   25   62 1
    53   25   63 1
    54   25   64 1
    55   26   65 1
    56   26   66 1
    57   26   67 1
    58   27   28 2
    59   27   29 1
    60   29   33 1
    61   29   30 2
    62   30   31 1
    63   30   37 1
    64   31   32 2
    65   31   34 1
    66   32   33 1
    67   34   35 2
    68   34   36 am
    69   36   68 1
    70   36   69 1
    71   37   70 1
    72   37   71 1
@<TRIPOS>MOLECULE
ZINC15446406
   65    66     0     0     0
SMALL
USER_CHARGES
N-(6-amino-1-butyl-2,4-dioxo-pyrimidin-5-yl)-N-ethyl-2-[methyl-[2-oxo-2-[[2-(trifluoromethyl)phenyl]amino]ethyl]amino]acetamide
@<TRIPOS>ATOM
      1 C1          2.4060   -5.6919    4.5057 C.3       1 <0>        -0.1549
      2 C2          2.4037   -4.5098    3.5344 C.3       1 <0>        -0.1215
      3 C3          1.1526   -4.5739    2.6561 C.3       1 <0>        -0.1401
      4 C4          1.1503   -3.3917    1.6848 C.3       1 <0>         0.0993
      5 N1         -0.0477   -3.4531    0.8437 N.am      1 <0>        -0.5358
      6 C5         -0.0099   -4.1331   -0.3514 C.2       1 <0>         0.5072
      7 C6         -1.1468   -4.1879   -1.1315 C.2       1 <0>        -0.1716
      8 C7         -2.3102   -3.5345   -0.6836 C.2       1 <0>         0.5771
      9 O1         -3.3275   -3.5631   -1.3554 O.2       1 <0>        -0.5214
     10 N2         -2.2925   -2.8775    0.4926 N.am      1 <0>        -0.6615
     11 H1         -3.1185   -2.4130    0.8118 H         1 <0>         0.4447
     12 C8         -1.1766   -2.8393    1.2422 C.2       1 <0>         0.7098
     13 O2         -1.1884   -2.2395    2.2999 O.2       1 <0>        -0.5158
     14 N3         -1.1414   -4.8822   -2.3598 N.am      1 <0>        -0.4984
     15 C9         -0.9768   -6.3378   -2.3777 C.3       1 <0>         0.0854
     16 C10        -2.3528   -7.0064   -2.3996 C.3       1 <0>        -0.1739
     17 C11        -1.2879   -4.2055   -3.5180 C.2       1 <0>         0.5039
     18 O3         -1.3329   -2.9931   -3.5106 O.2       1 <0>        -0.5015
     19 C12        -1.3955   -4.9557   -4.8205 C.3       1 <0>        -0.0281
     20 C13        -2.8250   -3.2816   -5.8287 C.3       1 <0>        -0.0602
     21 C14        -1.4176   -4.6716   -7.2250 C.3       1 <0>        -0.0261
     22 C15        -1.3321   -3.6384   -8.3187 C.2       1 <0>         0.5068
     23 O4         -1.3746   -2.4581   -8.0426 O.2       1 <0>        -0.4976
     24 N4         -1.2082   -4.0259   -9.6036 N.am      1 <0>        -0.6526
     25 C16        -1.2275   -3.0718  -10.6270 C.ar      1 <0>         0.1730
     26 C17        -0.7075   -1.8031  -10.4056 C.ar      1 <0>        -0.1197
     27 C18        -0.7236   -0.8654  -11.4192 C.ar      1 <0>        -0.0654
     28 C19        -1.2661   -1.1852  -12.6506 C.ar      1 <0>        -0.1172
     29 C20        -1.7893   -2.4456  -12.8725 C.ar      1 <0>        -0.0507
     30 C21        -1.7718   -3.3896  -11.8643 C.ar      1 <0>        -0.2018
     31 C22        -2.3432   -4.7629  -12.1067 C.3       1 <0>         0.5082
     32 F1         -2.8281   -4.8416  -13.4166 F         1 <0>        -0.1646
     33 F2         -1.3433   -5.7235  -11.9210 F         1 <0>        -0.1787
     34 F3         -3.3888   -4.9983  -11.2075 F         1 <0>        -0.1764
     35 N5          1.1452   -4.7548   -0.7613 N.pl3     1 <0>        -0.8286
     36 H2          3.2973   -5.6463    5.1315 H         1 <0>         0.0616
     37 H3          1.5173   -5.6466    5.1353 H         1 <0>         0.0577
     38 H4          2.4049   -6.6251    3.9424 H         1 <0>         0.0543
     39 H5          3.2923   -4.5551    2.9049 H         1 <0>         0.0660
     40 H6          2.4047   -3.5767    4.0978 H         1 <0>         0.0718
     41 H7          1.1515   -5.5070    2.0927 H         1 <0>         0.0671
     42 H8          0.2639   -4.5286    3.2856 H         1 <0>         0.0800
     43 H9          1.1513   -2.4586    2.2481 H         1 <0>         0.1181
     44 H10         2.0389   -3.4370    1.0552 H         1 <0>         0.0947
     45 H11        -0.4171   -6.6293   -3.2664 H         1 <0>         0.0862
     46 H12        -0.4338   -6.6531   -1.4867 H         1 <0>         0.0963
     47 H13        -2.2304   -8.0894   -2.4129 H         1 <0>         0.0802
     48 H14        -2.9126   -6.7150   -1.5109 H         1 <0>         0.0723
     49 H15        -2.8958   -6.6912   -3.2906 H         1 <0>         0.0554
     50 H16        -0.4937   -5.5483   -4.9741 H         1 <0>         0.1598
     51 H17        -2.2628   -5.6152   -4.7894 H         1 <0>         0.1665
     52 H18        -2.8649   -2.7358   -4.8861 H         1 <0>         0.1432
     53 H19        -2.9114   -2.5802   -6.6586 H         1 <0>         0.1366
     54 H20        -3.6471   -3.9962   -5.8699 H         1 <0>         0.1214
     55 H21        -0.5145   -5.2818   -7.2302 H         1 <0>         0.1657
     56 H22        -2.2867   -5.3076   -7.3932 H         1 <0>         0.1705
     57 H23        -1.1057   -4.9661   -9.8189 H         1 <0>         0.4211
     58 H24        -0.2878   -1.5513   -9.4429 H         1 <0>         0.1534
     59 H25        -0.3163    0.1202  -11.2488 H         1 <0>         0.1437
     60 H26        -1.2812   -0.4488  -13.4404 H         1 <0>         0.1452
     61 H27        -2.2125   -2.6922  -13.8351 H         1 <0>         0.1501
     62 H28         1.9079   -4.8039   -0.1639 H         1 <0>         0.4153
     63 H29         1.1978   -5.1446   -1.6479 H         1 <0>         0.4215
     64 N6         -1.5259   -3.9800   -5.9232 N.4       1 <0>        -0.3692
     65 H30        -0.7697   -3.2894   -5.8486 H         1 <0>         0.4423
@<TRIPOS>BOND
     1    1    2 1
     2    1   36 1
     3    1   37 1
     4    1   38 1
     5    2    3 1
     6    2   39 1
     7    2   40 1
     8    3    4 1
     9    3   41 1
    10    3   42 1
    11    4    5 1
    12    4   43 1
    13    4   44 1
    14    5   12 am
    15    5    6 1
    16    6    7 2
    17    6   35 1
    18    7    8 1
    19    7   14 1
    20    8    9 2
    21    8   10 am
    22   10   11 1
    23   10   12 am
    24   12   13 2
    25   14   15 1
    26   14   17 am
    27   15   16 1
    28   15   45 1
    29   15   46 1
    30   16   47 1
    31   16   48 1
    32   16   49 1
    33   17   18 2
    34   17   19 1
    35   19   50 1
    36   19   51 1
    37   19   64 1
    38   20   52 1
    39   20   53 1
    40   20   54 1
    41   20   64 1
    42   21   22 1
    43   21   55 1
    44   21   56 1
    45   21   64 1
    46   22   23 2
    47   22   24 am
    48   24   25 1
    49   24   57 1
    50   25   30 ar
    51   25   26 ar
    52   26   27 ar
    53   26   58 1
    54   27   28 ar
    55   27   59 1
    56   28   29 ar
    57   28   60 1
    58   29   30 ar
    59   29   61 1
    60   30   31 1
    61   31   32 1
    62   31   33 1
    63   31   34 1
    64   35   62 1
    65   35   63 1
    66   64   65 1
@<TRIPOS>MOLECULE
ZINC35464809
   71    73     0     0     0
SMALL
USER_CHARGES

@<TRIPOS>ATOM
      1 C1          0.9729    0.6129   -0.0644 C.3       1 <0>         0.0250
      2 O1          1.2164   -0.7824    0.1251 O.3       1 <0>        -0.3085
      3 C2          1.7276   -1.1623    1.3266 C.ar      1 <0>         0.1075
      4 C3          1.9836   -0.2136    2.3036 C.ar      1 <0>        -0.1886
      5 C4          2.5028   -0.6015    3.5246 C.ar      1 <0>        -0.0527
      6 C5          2.7682   -1.9352    3.7741 C.ar      1 <0>        -0.1337
      7 C6          2.5155   -2.8867    2.8037 C.ar      1 <0>        -0.0952
      8 C7          1.9893   -2.5054    1.5799 C.ar      1 <0>         0.0763
      9 O2          1.7346   -3.4409    0.6263 O.3       1 <0>        -0.4866
     10 C8          2.7806    0.4317    4.5859 C.3       1 <0>        -0.0687
     11 C9          1.4965    0.7186    5.3669 C.3       1 <0>        -0.0362
     12 H1          0.7017    0.9900    4.6721 H         1 <0>         0.0979
     13 C10         1.0856   -0.5303    6.1493 C.3       1 <0>         0.0680
     14 O3         -0.1542   -0.2876    6.8171 O.3       1 <0>        -0.3948
     15 C11        -0.6834   -1.4296    7.4936 C.3       1 <0>         0.2157
     16 H2          0.0773   -1.8454    8.1544 H         1 <0>         0.1017
     17 C12        -1.9044   -1.0142    8.3183 C.3       1 <0>         0.0666
     18 H3         -1.6199   -0.2311    9.0211 H         1 <0>         0.0696
     19 C13        -2.9914   -0.4867    7.3767 C.3       1 <0>         0.0851
     20 H4         -2.6292    0.4049    6.8650 H         1 <0>         0.0825
     21 C14        -3.3271   -1.5685    6.3455 C.3       1 <0>         0.0934
     22 H5         -4.0601   -1.1819    5.6374 H         1 <0>         0.0681
     23 C15        -2.0511   -1.9626    5.5970 C.3       1 <0>         0.1095
     24 H6         -1.6654   -1.0984    5.0561 H         1 <0>         0.0826
     25 O4         -1.0710   -2.4149    6.5338 O.3       1 <0>        -0.3560
     26 C16        -2.3666   -3.0852    4.6065 C.3       1 <0>         0.0886
     27 O5         -1.2043   -3.3730    3.8266 O.3       1 <0>        -0.5622
     28 O6         -3.8641   -2.7130    7.0116 O.3       1 <0>        -0.5326
     29 O7         -4.1613   -0.1632    8.1308 O.3       1 <0>        -0.5542
     30 O8         -2.4015   -2.1442    9.0380 O.3       1 <0>        -0.5193
     31 C17         1.7355    1.8563    6.3259 C.ar      1 <0>        -0.0526
     32 C18         2.7064    1.7433    7.2999 C.ar      1 <0>        -0.1249
     33 C19         2.9289    2.7955    8.1886 C.ar      1 <0>        -0.0214
     34 C20         2.1677    3.9615    8.0899 C.ar      1 <0>        -0.1943
     35 C21         1.1964    4.0687    7.1120 C.ar      1 <0>         0.1093
     36 C22         0.9831    3.0164    6.2241 C.ar      1 <0>         0.0860
     37 O9          0.0314    3.1253    5.2593 O.3       1 <0>        -0.4815
     38 O10         0.4531    5.2032    7.0132 O.3       1 <0>        -0.3069
     39 C23         0.7296    6.2438    7.9528 C.3       1 <0>         0.0241
     40 C24         3.9680    2.6758    9.2325 C.2       1 <0>        -0.1081
     41 C25         4.1784    3.6767   10.0764 C.2       1 <0>        -0.1399
     42 C26         5.2380    3.5546   11.1410 C.3       1 <0>         0.1039
     43 O11         6.0040    4.7599   11.1910 O.3       1 <0>        -0.5708
     44 H7          1.9078    1.1627    0.0431 H         1 <0>         0.0551
     45 H8          0.5666    0.7786   -1.0623 H         1 <0>         0.1009
     46 H9          0.2584    0.9616    0.6812 H         1 <0>         0.0564
     47 H10         1.7778    0.8290    2.1109 H         1 <0>         0.1313
     48 H11         3.1741   -2.2343    4.7292 H         1 <0>         0.1248
     49 H12         2.7241   -3.9279    3.0010 H         1 <0>         0.1342
     50 H13         2.4795   -3.6116    0.0338 H         1 <0>         0.3846
     51 H14         3.5441    0.0564    5.2674 H         1 <0>         0.0797
     52 H15         3.1328    1.3499    4.1158 H         1 <0>         0.0847
     53 H16         0.9701   -1.3681    5.4618 H         1 <0>         0.0768
     54 H17         1.8542   -0.7673    6.8850 H         1 <0>         0.0518
     55 H18        -2.6674   -3.9786    5.1536 H         1 <0>         0.0648
     56 H19        -3.1772   -2.7720    3.9485 H         1 <0>         0.0576
     57 H20        -1.3317   -4.0768    3.1758 H         1 <0>         0.3817
     58 H21        -4.6730   -2.5342    7.5105 H         1 <0>         0.3828
     59 H22        -4.0186    0.5125    8.8076 H         1 <0>         0.3838
     60 H23        -1.7623   -2.5324    9.6511 H         1 <0>         0.3745
     61 H24         3.2939    0.8401    7.3745 H         1 <0>         0.1285
     62 H25         2.3369    4.7780    8.7763 H         1 <0>         0.1342
     63 H26        -0.8432    2.8167    5.5330 H         1 <0>         0.3849
     64 H27         0.5650    5.8730    8.9645 H         1 <0>         0.0551
     65 H28         1.7664    6.5629    7.8469 H         1 <0>         0.0566
     66 H29         0.0681    7.0893    7.7636 H         1 <0>         0.1030
     67 H30         4.5561    1.7731    9.3081 H         1 <0>         0.1238
     68 H31         3.5903    4.5794   10.0008 H         1 <0>         0.1181
     69 H32         4.7640    3.3850   12.1077 H         1 <0>         0.0597
     70 H33         5.8943    2.7166   10.9060 H         1 <0>         0.0545
     71 H34         6.7063    4.7524   11.8558 H         1 <0>         0.3842
@<TRIPOS>BOND
     1    1    2 1
     2    1   44 1
     3    1   45 1
     4    1   46 1
     5    2    3 1
     6    3    8 ar
     7    3    4 ar
     8    4    5 ar
     9    4   47 1
    10    5    6 ar
    11    5   10 1
    12    6    7 ar
    13    6   48 1
    14    7    8 ar
    15    7   49 1
    16    8    9 1
    17    9   50 1
    18   10   11 1
    19   10   51 1
    20   10   52 1
    21   11   12 1
    22   11   13 1
    23   11   31 1
    24   13   14 1
    25   13   53 1
    26   13   54 1
    27   14   15 1
    28   15   16 1
    29   15   25 1
    30   15   17 1
    31   17   18 1
    32   17   19 1
    33   17   30 1
    34   19   20 1
    35   19   21 1
    36   19   29 1
    37   21   22 1
    38   21   23 1
    39   21   28 1
    40   23   24 1
    41   23   25 1
    42   23   26 1
    43   26   27 1
    44   26   55 1
    45   26   56 1
    46   27   57 1
    47   28   58 1
    48   29   59 1
    49   30   60 1
    50   31   36 ar
    51   31   32 ar
    52   32   33 ar
    53   32   61 1
    54   33   34 ar
    55   33   40 1
    56   34   35 ar
    57   34   62 1
    58   35   36 ar
    59   35   38 1
    60   36   37 1
    61   37   63 1
    62   38   39 1
    63   39   64 1
    64   39   65 1
    65   39   66 1
    66   40   41 2
    67   40   67 1
    68   41   42 1
    69   41   68 1
    70   42   43 1
    71   42   69 1
    72   42   70 1
    73   43   71 1
@<TRIPOS>MOLECULE
ZINC43946862
   63    65     0     0     0
SMALL
USER_CHARGES

@<TRIPOS>ATOM
      1 C1         -1.2831    1.5018   -1.5975 C.3       1 <0>        -0.1544
      2 C2         -1.6343    0.0159   -1.4993 C.3       1 <0>        -0.1088
      3 C3         -0.9935   -0.5776   -0.2431 C.3       1 <0>        -0.0969
      4 H1         -1.3002    0.0001    0.6289 H         1 <0>         0.0879
      5 C4          0.5300   -0.5296   -0.3764 C.3       1 <0>        -0.1497
      6 C5         -1.4455   -2.0299   -0.0775 C.3       1 <0>         0.1554
      7 H2         -2.5345   -2.0743   -0.0827 H         1 <0>         0.1115
      8 C6         -0.9268   -2.5715    1.2297 C.2       1 <0>         0.5255
      9 O1          0.1187   -3.1854    1.2596 O.2       1 <0>        -0.5235
     10 N1         -1.6249   -2.3736    2.3655 N.am      1 <0>        -0.6978
     11 C7         -1.1791   -2.9922    3.6164 C.3       1 <0>         0.1356
     12 H3         -0.7447   -3.9691    3.4041 H         1 <0>         0.1181
     13 C8         -2.3742   -3.1590    4.5571 C.3       1 <0>        -0.0449
     14 C9         -3.3535   -4.1345    3.9569 C.2       1 <0>        -0.1774
     15 C10        -4.4288   -3.8308    3.2129 C.2       1 <0>         0.0651
     16 N2         -5.0800   -4.9764    2.8445 N.pl3     1 <0>        -0.5923
     17 H4         -5.8847   -5.0107    2.3039 H         1 <0>         0.4177
     18 C11        -4.4230   -6.0733    3.3554 C.ar      1 <0>         0.0963
     19 C12        -3.3091   -5.5944    4.0693 C.ar      1 <0>        -0.0987
     20 C13        -2.4461   -6.4933    4.6984 C.ar      1 <0>        -0.0742
     21 C14        -2.6860   -7.8361    4.6144 C.ar      1 <0>        -0.1422
     22 C15        -3.7811   -8.3137    3.9080 C.ar      1 <0>        -0.0976
     23 C16        -4.6509   -7.4436    3.2873 C.ar      1 <0>        -0.1289
     24 C17        -0.1440   -2.1135    4.2703 C.2       1 <0>         0.5062
     25 O2          0.1886   -1.0731    3.7433 O.2       1 <0>        -0.5279
     26 N3          0.4122   -2.4839    5.4408 N.am      1 <0>        -0.8532
     27 N4         -0.9186   -2.8343   -1.1828 N.am      1 <0>        -0.6903
     28 C18        -1.5880   -2.8948   -2.3510 C.2       1 <0>         0.6529
     29 O3         -2.6284   -2.2821   -2.4875 O.2       1 <0>        -0.5650
     30 O4         -1.1038   -3.6341   -3.3668 O.3       1 <0>        -0.3576
     31 C19        -1.8651   -3.6526   -4.5760 C.3       1 <0>         0.1299
     32 C20        -1.1736   -4.5253   -5.5915 C.ar      1 <0>        -0.1012
     33 C21        -0.2412   -3.9779   -6.4528 C.ar      1 <0>        -0.0929
     34 C22         0.3931   -4.7784   -7.3843 C.ar      1 <0>        -0.1231
     35 C23         0.0953   -6.1265   -7.4543 C.ar      1 <0>        -0.1071
     36 C24        -0.8365   -6.6741   -6.5924 C.ar      1 <0>        -0.1234
     37 C25        -1.4676   -5.8744   -5.6580 C.ar      1 <0>        -0.0935
     38 H5         -1.7397    1.9247   -2.4924 H         1 <0>         0.0537
     39 H6         -1.6590    2.0230   -0.7170 H         1 <0>         0.0534
     40 H7         -0.2006    1.6165   -1.6530 H         1 <0>         0.0549
     41 H8         -2.7168   -0.0987   -1.4437 H         1 <0>         0.0715
     42 H9         -1.2584   -0.5052   -2.3798 H         1 <0>         0.0613
     43 H10         0.9867   -0.9289    0.5292 H         1 <0>         0.0622
     44 H11         0.8387   -1.1282   -1.2334 H         1 <0>         0.0556
     45 H12         0.8498    0.5024   -0.5200 H         1 <0>         0.0617
     46 H13        -2.4225   -1.8216    2.3547 H         1 <0>         0.4049
     47 H14        -2.0290   -3.5365    5.5196 H         1 <0>         0.0935
     48 H15        -2.8624   -2.1948    4.6989 H         1 <0>         0.0852
     49 H16        -4.7347   -2.8302    2.9450 H         1 <0>         0.1686
     50 H17        -1.5916   -6.1289    5.2493 H         1 <0>         0.1204
     51 H18        -2.0180   -8.5311    5.1012 H         1 <0>         0.1232
     52 H19        -3.9571   -9.3776    3.8499 H         1 <0>         0.1255
     53 H20        -5.4995   -7.8252    2.7389 H         1 <0>         0.1197
     54 H21         0.1462   -3.3161    5.8623 H         1 <0>         0.4014
     55 H22         1.0784   -1.9184    5.8616 H         1 <0>         0.4039
     56 H23        -0.0881   -3.3234   -1.0738 H         1 <0>         0.4169
     57 H24        -2.8598   -4.0494   -4.3731 H         1 <0>         0.0777
     58 H25        -1.9511   -2.6387   -4.9668 H         1 <0>         0.0787
     59 H26        -0.0085   -2.9246   -6.3981 H         1 <0>         0.1249
     60 H27         1.1211   -4.3505   -8.0577 H         1 <0>         0.1264
     61 H28         0.5903   -6.7518   -8.1825 H         1 <0>         0.1253
     62 H29        -1.0694   -7.7273   -6.6473 H         1 <0>         0.1261
     63 H30        -2.1928   -6.3030   -4.9822 H         1 <0>         0.1241
@<TRIPOS>BOND
     1    1    2 1
     2    1   38 1
     3    1   39 1
     4    1   40 1
     5    2    3 1
     6    2   41 1
     7    2   42 1
     8    3    4 1
     9    3    5 1
    10    3    6 1
    11    5   43 1
    12    5   44 1
    13    5   45 1
    14    6    7 1
    15    6    8 1
    16    6   27 1
    17    8    9 2
    18    8   10 am
    19   10   11 1
    20   10   46 1
    21   11   12 1
    22   11   13 1
    23   11   24 1
    24   13   14 1
    25   13   47 1
    26   13   48 1
    27   14   19 1
    28   14   15 2
    29   15   16 1
    30   15   49 1
    31   16   17 1
    32   16   18 1
    33   18   23 ar
    34   18   19 ar
    35   19   20 ar
    36   20   21 ar
    37   20   50 1
    38   21   22 ar
    39   21   51 1
    40   22   23 ar
    41   22   52 1
    42   23   53 1
    43   24   25 2
    44   24   26 am
    45   26   54 1
    46   26   55 1
    47   27   28 am
    48   27   56 1
    49   28   29 2
    50   28   30 1
    51   30   31 1
    52   31   32 1
    53   31   57 1
    54   31   58 1
    55   32   37 ar
    56   32   33 ar
    57   33   34 ar
    58   33   59 1
    59   34   35 ar
    60   34   60 1
    61   35   36 ar
    62   35   61 1
    63   36   37 ar
    64   36   62 1
    65   37   63 1
@<TRIPOS>MOLECULE
ZINC05258975
   50    51     0     0     0
SMALL
USER_CHARGES
4-[3-(allylthiocarbamoylamino)phenyl]amino-2-(2-furylmethylamino)-4-oxo-butanoic acid
@<TRIPOS>ATOM
      1 C1          8.8705   -2.4244   10.2228 C.2       1 <0>        -0.1477
      2 C2          9.5071   -1.6329    9.3956 C.2       1 <0>        -0.1930
      3 C3          8.9407   -1.3622    8.0255 C.3       1 <0>         0.1512
      4 N1          8.8042    0.0833    7.8304 N.pl3     1 <0>        -0.6736
      5 C4          8.3146    0.5634    6.6702 C.2       1 <0>         0.5526
      6 S1          7.8522   -0.5159    5.4243 S.2       1 <0>        -0.6077
      7 N2          8.1891    1.8933    6.4907 N.pl3     1 <0>        -0.6342
      8 C5          7.7930    2.3969    5.2471 C.ar      1 <0>         0.1463
      9 C6          8.3053    1.8465    4.0786 C.ar      1 <0>        -0.0782
     10 C7          7.9146    2.3432    2.8503 C.ar      1 <0>        -0.0925
     11 C8          7.0140    3.3888    2.7793 C.ar      1 <0>        -0.1100
     12 C9          6.4982    3.9435    3.9437 C.ar      1 <0>         0.1366
     13 C10         6.8930    3.4506    5.1793 C.ar      1 <0>        -0.1457
     14 N3          5.5859    5.0019    3.8709 N.am      1 <0>        -0.6590
     15 C11         4.6945    5.0550    2.8614 C.2       1 <0>         0.5090
     16 O1          4.7345    4.2302    1.9731 O.2       1 <0>        -0.5318
     17 C12         3.6482    6.1393    2.8363 C.3       1 <0>        -0.1496
     18 C13         2.7708    5.9727    1.5941 C.3       1 <0>        -0.0012
     19 H1          3.4001    5.9554    0.7043 H         1 <0>         0.1480
     20 C14         1.8043    7.1254    1.5035 C.2       1 <0>         0.4600
     21 O2          0.6140    6.9183    1.5165 O.co2     1 <0>        -0.6098
     22 C15         1.6542    4.2170    0.3557 C.3       1 <0>         0.1036
     23 C16         0.8894    2.9258    0.4930 C.2       1 <0>        -0.0936
     24 C17        -0.4453    2.8112    0.6150 C.2       1 <0>        -0.1455
     25 C18        -0.7303    1.4300    0.7151 C.2       1 <0>        -0.2213
     26 C19         0.4472    0.7832    0.6484 C.2       1 <0>        -0.0005
     27 O3          1.4248    1.6942    0.5139 O.3       1 <0>        -0.1665
     28 H2          9.2764   -2.6184   11.2047 H         1 <0>         0.1080
     29 H3          7.9397   -2.8829    9.9230 H         1 <0>         0.1044
     30 H4         10.4378   -1.1744    9.6954 H         1 <0>         0.1172
     31 H5          7.9625   -1.8348    7.9369 H         1 <0>         0.0937
     32 H6          9.6108   -1.7694    7.2684 H         1 <0>         0.0991
     33 H7          9.0663    0.6949    8.5363 H         1 <0>         0.4003
     34 H8          8.3734    2.5012    7.2237 H         1 <0>         0.4071
     35 H9          9.0093    1.0292    4.1308 H         1 <0>         0.1458
     36 H10         8.3136    1.9132    1.9435 H         1 <0>         0.1342
     37 H11         6.7105    3.7750    1.8174 H         1 <0>         0.1426
     38 H12         6.4968    3.8831    6.0862 H         1 <0>         0.1282
     39 H13         5.5950    5.6974    4.5470 H         1 <0>         0.4171
     40 H14         4.1356    7.1139    2.8089 H         1 <0>         0.1521
     41 H15         3.0293    6.0677    3.7307 H         1 <0>         0.1167
     42 H16         2.5574    4.0439   -0.2295 H         1 <0>         0.1393
     43 H17         1.0313    4.9565   -0.1475 H         1 <0>         0.1573
     44 H18        -1.1620    3.6190    0.6289 H         1 <0>         0.1633
     45 H19        -1.7062    0.9806    0.8248 H         1 <0>         0.1587
     46 H20         0.5834   -0.2872    0.6947 H         1 <0>         0.2128
     47 O4          2.2658    8.3823    1.4083 O.co2     1 <0>        -0.6959
     48 N4          2.0196    4.7074    1.6981 N.4       1 <0>        -0.4983
     49 H21         1.1653    4.8647    2.2454 H         1 <0>         0.4302
     50 H22         2.6027    4.0050    2.1681 H         1 <0>         0.4201
@<TRIPOS>BOND
     1    1    2 2
     2    1   28 1
     3    1   29 1
     4    2    3 1
     5    2   30 1
     6    3    4 1
     7    3   31 1
     8    3   32 1
     9    4    5 1
    10    4   33 1
    11    5    6 2
    12    5    7 1
    13    7    8 1
    14    7   34 1
    15    8   13 ar
    16    8    9 ar
    17    9   10 ar
    18    9   35 1
    19   10   11 ar
    20   10   36 1
    21   11   12 ar
    22   11   37 1
    23   12   13 ar
    24   12   14 1
    25   13   38 1
    26   14   15 am
    27   14   39 1
    28   15   16 2
    29   15   17 1
    30   17   18 1
    31   17   40 1
    32   17   41 1
    33   18   19 1
    34   18   20 1
    35   18   48 1
    36   20   21 2
    37   20   47 1
    38   22   23 1
    39   22   42 1
    40   22   43 1
    41   22   48 1
    42   23   27 1
    43   23   24 2
    44   24   25 1
    45   24   44 1
    46   25   26 2
    47   25   45 1
    48   26   27 1
    49   26   46 1
    50   48   49 1
    51   48   50 1
@<TRIPOS>MOLECULE
ZINC07779504
   64    64     0     0     0
SMALL
USER_CHARGES
N-isobutyl-2-[isobutylcarbamoylmethyl-[1-(4-sulfamoylphenyl)ethyl]amino]-acetamide
@<TRIPOS>ATOM
      1 C1          1.2177    8.6142    3.8844 C.3       1 <0>        -0.1529
      2 C2          0.7563    7.8134    2.6651 C.3       1 <0>        -0.1092
      3 C3          1.8359    7.8656    1.5823 C.3       1 <0>        -0.1502
      4 C4          0.5126    6.3590    3.0726 C.3       1 <0>         0.1206
      5 N1         -0.6023    6.2978    4.0211 N.am      1 <0>        -0.7048
      6 C5         -0.9983    5.1100    4.5199 C.2       1 <0>         0.5053
      7 O1         -0.4316    4.0918    4.1836 O.2       1 <0>        -0.5097
      8 C6         -2.1451    5.0471    5.4955 C.3       1 <0>        -0.0377
      9 C7         -3.0936    3.4849    7.0838 C.3       1 <0>        -0.0315
     10 C8         -2.0257    3.6298    8.1372 C.2       1 <0>         0.4935
     11 O2         -0.8796    3.8565    7.8117 O.2       1 <0>        -0.5216
     12 N2         -2.3443    3.5074    9.4410 N.am      1 <0>        -0.7003
     13 C9         -1.3062    3.6483   10.4651 C.3       1 <0>         0.1174
     14 C10        -1.9288    3.4661   11.8508 C.3       1 <0>        -0.1085
     15 C11        -2.4459    2.0331   11.9931 C.3       1 <0>        -0.1537
     16 C12        -0.8723    3.7359   12.9241 C.3       1 <0>        -0.1502
     17 C13        -3.3838    3.1216    4.7076 C.3       1 <0>         0.0729
     18 H1         -3.7123    2.1180    4.9777 H         1 <0>         0.1531
     19 C14        -4.6018    4.0376    4.5720 C.3       1 <0>        -0.1852
     20 C15        -2.6441    3.0720    3.3955 C.ar      1 <0>        -0.0846
     21 C16        -2.8021    4.0901    2.4740 C.ar      1 <0>        -0.1246
     22 C17        -2.1236    4.0446    1.2705 C.ar      1 <0>        -0.0108
     23 C18        -1.2863    2.9812    0.9889 C.ar      1 <0>        -0.6496
     24 C19        -1.1320    1.9607    1.9085 C.ar      1 <0>        -0.0045
     25 C20        -1.8072    2.0084    3.1138 C.ar      1 <0>        -0.0887
     26 S1         -0.4214    2.9232   -0.5451 S.o2      1 <0>         2.6946
     27 O3         -1.1617    3.7204   -1.4592 O.2       1 <0>        -0.9503
     28 O4         -0.1257    1.5556   -0.7931 O.2       1 <0>        -0.9470
     29 N3          1.0300    3.6876   -0.3181 N.pl3     1 <0>        -1.2406
     30 H2          2.1420    8.1857    4.2720 H         1 <0>         0.0607
     31 H3          1.3913    9.6504    3.5941 H         1 <0>         0.0655
     32 H4          0.4486    8.5770    4.6559 H         1 <0>         0.0506
     33 H5         -0.1680    8.2419    2.2776 H         1 <0>         0.0800
     34 H6          1.5072    7.2951    0.7137 H         1 <0>         0.0609
     35 H7          2.0096    8.9018    1.2920 H         1 <0>         0.0678
     36 H8          2.7602    7.4371    1.9699 H         1 <0>         0.0616
     37 H9          1.4110    5.9576    3.5416 H         1 <0>         0.0788
     38 H10         0.2701    5.7696    2.1884 H         1 <0>         0.0764
     39 H11        -1.0555    7.1121    4.2900 H         1 <0>         0.4073
     40 H12        -3.0080    5.5641    5.0757 H         1 <0>         0.1589
     41 H13        -1.8537    5.5262    6.4302 H         1 <0>         0.1579
     42 H14        -3.8560    4.2497    7.2316 H         1 <0>         0.1641
     43 H15        -3.5492    2.4977    7.1617 H         1 <0>         0.1647
     44 H16        -3.2610    3.3261    9.7014 H         1 <0>         0.4107
     45 H17        -0.5375    2.8914   10.3098 H         1 <0>         0.0810
     46 H18        -0.8591    4.6399   10.3953 H         1 <0>         0.0798
     47 H19        -2.7565    4.1648   11.9720 H         1 <0>         0.0805
     48 H20        -2.8894    1.9033   12.9803 H         1 <0>         0.0666
     49 H21        -3.1986    1.8409   11.2285 H         1 <0>         0.0508
     50 H22        -1.6182    1.3344   11.8719 H         1 <0>         0.0612
     51 H23        -0.5038    4.7567   12.8227 H         1 <0>         0.0610
     52 H24        -1.3158    3.6061   13.9113 H         1 <0>         0.0682
     53 H25        -0.0445    3.0372   12.8029 H         1 <0>         0.0618
     54 H26        -5.0577    4.1833    5.5513 H         1 <0>         0.0884
     55 H27        -4.2888    5.0012    4.1700 H         1 <0>         0.0858
     56 H28        -5.3266    3.5810    3.8980 H         1 <0>         0.1159
     57 H29        -3.4560    4.9211    2.6941 H         1 <0>         0.1376
     58 H30        -2.2473    4.8399    0.5504 H         1 <0>         0.1480
     59 H31        -0.4813    1.1278    1.6866 H         1 <0>         0.1499
     60 H32        -1.6835    1.2131    3.8339 H         1 <0>         0.1354
     61 H33         1.2543    4.4693   -0.8467 H         1 <0>         0.4251
     62 H34         1.6557    3.3536    0.3436 H         1 <0>         0.4208
     63 N4         -2.4686    3.6278    5.7520 N.4       1 <0>        -0.3691
     64 H35        -1.6012    3.0788    5.7300 H         1 <0>         0.4445
@<TRIPOS>BOND
     1    1    2 1
     2    1   30 1
     3    1   31 1
     4    1   32 1
     5    2    3 1
     6    2    4 1
     7    2   33 1
     8    3   34 1
     9    3   35 1
    10    3   36 1
    11    4    5 1
    12    4   37 1
    13    4   38 1
    14    5    6 am
    15    5   39 1
    16    6    7 2
    17    6    8 1
    18    8   40 1
    19    8   41 1
    20    8   63 1
    21    9   10 1
    22    9   42 1
    23    9   43 1
    24    9   63 1
    25   10   11 2
    26   10   12 am
    27   12   13 1
    28   12   44 1
    29   13   14 1
    30   13   45 1
    31   13   46 1
    32   14   15 1
    33   14   16 1
    34   14   47 1
    35   15   48 1
    36   15   49 1
    37   15   50 1
    38   16   51 1
    39   16   52 1
    40   16   53 1
    41   17   18 1
    42   17   19 1
    43   17   20 1
    44   17   63 1
    45   19   54 1
    46   19   55 1
    47   19   56 1
    48   20   25 ar
    49   20   21 ar
    50   21   22 ar
    51   21   57 1
    52   22   23 ar
    53   22   58 1
    54   23   24 ar
    55   23   26 1
    56   24   25 ar
    57   24   59 1
    58   25   60 1
    59   26   27 2
    60   26   28 2
    61   26   29 1
    62   29   61 1
    63   29   62 1
    64   63   64 1
@<TRIPOS>MOLECULE
ZINC22075594
   48    48     0     0     0
SMALL
USER_CHARGES
2-[2-bromo-4-[[2-[[(2S)-2-hydroxypropyl]amino]ethylamino]methyl]-6-methoxy-phenoxy]acetamide
@<TRIPOS>ATOM
      1 C1         -0.1983    1.0583   14.5275 C.3       1 <0>        -0.1528
      2 C2          0.7157    0.5826   13.3965 C.3       1 <0>         0.1146
      3 H1          0.8772   -0.5044   13.4447 H         1 <0>         0.0649
      4 C3          0.1181    0.9954   12.0499 C.3       1 <0>         0.0165
      5 N1          0.9311    0.4365   10.9615 N.3       1 <0>        -0.6642
      6 C4          0.3859    0.8132    9.6504 C.3       1 <0>         0.0206
      7 C5          1.2573    0.2142    8.5446 C.3       1 <0>        -0.0020
      8 N2          0.7121    0.5908    7.2335 N.4       1 <0>        -0.5383
      9 C6          1.5251    0.0320    6.1451 C.3       1 <0>         0.0529
     10 C7          0.9365    0.4386    4.8187 C.ar      1 <0>        -0.1216
     11 C8          1.3468    1.6117    4.2125 C.ar      1 <0>        -0.1674
     12 C9          0.8069    1.9874    2.9931 C.ar      1 <0>         0.1305
     13 C10        -0.1484    1.1818    2.3806 C.ar      1 <0>         0.1237
     14 C11        -0.5594    0.0098    2.9957 C.ar      1 <0>        -0.0794
     15 C12        -0.0118   -0.3622    4.2107 C.ar      1 <0>        -0.0919
     16 Br1        -1.8624   -1.0846    2.1709 Br        1 <0>         0.0063
     17 O1         -0.6816    1.5467    1.1837 O.3       1 <0>        -0.2874
     18 C13        -0.0127    1.0858    0.0080 C.3       1 <0>         0.0443
     19 C14        -0.7416    1.5850   -1.2129 C.2       1 <0>         0.5217
     20 O2         -1.7359    2.2682   -1.0884 O.2       1 <0>        -0.5215
     21 N3         -0.2884    1.2723   -2.4431 N.am      1 <0>        -0.8732
     22 O3          1.2093    3.1411    2.3962 O.3       1 <0>        -0.2912
     23 C15         2.1930    3.9178    3.0825 C.3       1 <0>         0.0160
     24 O4          2.0072    1.1757   13.5464 O.3       1 <0>        -0.5944
     25 H2          0.2314    0.7615   15.4956 H         1 <0>         0.0720
     26 H3         -1.1924    0.6017   14.4121 H         1 <0>         0.0757
     27 H4         -0.2910    2.1537   14.4879 H         1 <0>         0.0647
     28 H5         -0.9105    0.6133   11.9727 H         1 <0>         0.0886
     29 H6          0.1083    2.0927   11.9740 H         1 <0>         0.0502
     30 H7          1.9597    0.8186   11.0388 H         1 <0>         0.3443
     31 H8         -0.6408    0.4298    9.5564 H         1 <0>         0.0956
     32 H9          0.3779    1.9093    9.5578 H         1 <0>         0.0552
     33 H10         2.2840    0.5976    8.6387 H         1 <0>         0.1293
     34 H11         1.2653   -0.8819    8.6373 H         1 <0>         0.1401
     35 H12        -0.3146    0.2074    7.1395 H         1 <0>         0.4528
     36 H13         2.5537    0.4141    6.2224 H         1 <0>         0.1393
     37 H14         1.5350   -1.0653    6.2210 H         1 <0>         0.1424
     38 H15         2.0880    2.2355    4.6899 H         1 <0>         0.1485
     39 H16        -0.3292   -1.2781    4.6870 H         1 <0>         0.1495
     40 H17         1.0193    1.4666    0.0002 H         1 <0>         0.0904
     41 H18         0.0023   -0.0141    0.0020 H         1 <0>         0.0888
     42 H19        -0.8204    1.6367   -3.3343 H         1 <0>         0.4356
     43 H20         0.6135    0.6527   -2.5559 H         1 <0>         0.4221
     44 H21         2.4260    4.8174    2.4939 H         1 <0>         0.1163
     45 H22         3.1063    3.3191    3.2144 H         1 <0>         0.0630
     46 H23         1.8038    4.2148    4.0676 H         1 <0>         0.0611
     47 H24         2.8035    0.9500   12.8218 H         1 <0>         0.3990
     48 H25         0.7041    1.6869    7.1408 H         1 <0>         0.4488
@<TRIPOS>BOND
     1    1    2 1
     2    1   25 1
     3    1   26 1
     4    1   27 1
     5    2    3 1
     6    2    4 1
     7    2   24 1
     8    4    5 1
     9    4   28 1
    10    4   29 1
    11    5    6 1
    12    5   30 1
    13    6    7 1
    14    6   31 1
    15    6   32 1
    16    7    8 1
    17    7   33 1
    18    7   34 1
    19    8    9 1
    20    8   35 1
    21    8   48 1
    22    9   10 1
    23    9   36 1
    24    9   37 1
    25   10   15 ar
    26   10   11 ar
    27   11   12 ar
    28   11   38 1
    29   12   13 ar
    30   12   22 1
    31   13   14 ar
    32   13   17 1
    33   14   15 ar
    34   14   16 1
    35   15   39 1
    36   17   18 1
    37   18   19 1
    38   18   40 1
    39   18   41 1
    40   19   20 2
    41   19   21 am
    42   21   42 1
    43   21   43 1
    44   22   23 1
    45   23   44 1
    46   23   45 1
    47   23   46 1
    48   24   47 1
@<TRIPOS>MOLECULE
ZINC35466050
   67    67     0     0     0
SMALL
USER_CHARGES

@<TRIPOS>ATOM
      1 C1          0.1281    2.0202   -0.7574 C.3       1 <0>        -0.1175
      2 C2          0.2032    0.5644   -0.3750 C.2       1 <0>        -0.1258
      3 C3          0.4107    0.2249    0.8731 C.2       1 <0>        -0.1647
      4 C4          0.4501    1.2831    1.9453 C.3       1 <0>        -0.0934
      5 C5         -0.5650    0.9404    3.0376 C.3       1 <0>        -0.1310
      6 C6         -0.5250    2.0148    4.1261 C.3       1 <0>         0.1572
      7 C7          0.9062    2.1599    4.6472 C.3       1 <0>        -0.1385
      8 C8         -1.4343    1.6155    5.2597 C.2       1 <0>        -0.1882
      9 C9         -2.4396    2.3854    5.5953 C.2       1 <0>        -0.1821
     10 O1         -0.9623    3.2614    3.5813 O.3       1 <0>        -0.5544
     11 C10         0.0398   -0.5007   -1.4285 C.3       1 <0>        -0.0799
     12 C11        -1.4487   -0.7844   -1.6402 C.3       1 <0>        -0.1401
     13 C12        -1.6147   -1.8658   -2.7098 C.3       1 <0>         0.1237
     14 H1         -1.0969   -1.5602   -3.6189 H         1 <0>         0.1075
     15 C13        -3.1020   -2.0612   -3.0110 C.3       1 <0>         0.0840
     16 C14        -3.2759   -3.2265   -3.9871 C.3       1 <0>        -0.1652
     17 C15        -3.8495   -2.3683   -1.7119 C.3       1 <0>        -0.1892
     18 O2         -3.6305   -0.8684   -3.5942 O.3       1 <0>        -0.3496
     19 C16        -5.0243   -0.9399   -3.9013 C.3       1 <0>         0.2232
     20 H2         -5.5609   -1.3722   -3.0568 H         1 <0>         0.0699
     21 C17        -5.5586    0.4676   -4.1791 C.3       1 <0>         0.0590
     22 H3         -4.9951    0.9163   -4.9972 H         1 <0>         0.0829
     23 C18        -7.0379    0.3765   -4.5661 C.3       1 <0>         0.0852
     24 H4         -7.6095   -0.0262   -3.7299 H         1 <0>         0.0754
     25 C19        -7.1813   -0.5494   -5.7779 C.3       1 <0>         0.0903
     26 H5         -6.6505   -0.1213   -6.6282 H         1 <0>         0.0793
     27 C20        -6.5843   -1.9176   -5.4383 C.3       1 <0>         0.1075
     28 H6         -7.1414   -2.3629   -4.6140 H         1 <0>         0.0788
     29 O3         -5.2163   -1.7579   -5.0572 O.3       1 <0>        -0.3692
     30 C21        -6.6697   -2.8299   -6.6635 C.3       1 <0>         0.0907
     31 O4         -6.2202   -4.1406   -6.3138 O.3       1 <0>        -0.5663
     32 O5         -8.5646   -0.6983   -6.1041 O.3       1 <0>        -0.5509
     33 O6         -7.5267    1.6781   -4.8964 O.3       1 <0>        -0.5559
     34 O7         -5.4193    1.2716   -3.0060 O.3       1 <0>        -0.5554
     35 O8         -1.0594   -3.0941   -2.2354 O.3       1 <0>        -0.5460
     36 H7          1.0310    2.5308   -0.4227 H         1 <0>         0.0652
     37 H8          0.0416    2.1074   -1.8404 H         1 <0>         0.0590
     38 H9         -0.7428    2.4753   -0.2855 H         1 <0>         0.0652
     39 H10         0.5535   -0.8135    1.1336 H         1 <0>         0.1058
     40 H11         1.4495    1.3246    2.3782 H         1 <0>         0.0724
     41 H12         0.2023    2.2511    1.5097 H         1 <0>         0.0779
     42 H13        -1.5645    0.8989    2.6046 H         1 <0>         0.0646
     43 H14        -0.3172   -0.0275    3.4731 H         1 <0>         0.0718
     44 H15         1.5638    2.4487    3.8273 H         1 <0>         0.0695
     45 H16         0.9347    2.9253    5.4227 H         1 <0>         0.0624
     46 H17         1.2397    1.2090    5.0628 H         1 <0>         0.0708
     47 H18        -1.2570    0.6946    5.7954 H         1 <0>         0.1146
     48 H19        -3.0912    2.0992    6.4077 H         1 <0>         0.0997
     49 H20        -2.6168    3.3063    5.0596 H         1 <0>         0.1040
     50 H21        -1.8635    3.2432    3.2314 H         1 <0>         0.3745
     51 H22         0.4808   -0.1570   -2.3642 H         1 <0>         0.0673
     52 H23         0.5409   -1.4127   -1.1040 H         1 <0>         0.0727
     53 H24        -1.8898   -1.1281   -0.7045 H         1 <0>         0.0678
     54 H25        -1.9499    0.1275   -1.9647 H         1 <0>         0.0782
     55 H26        -2.7655   -4.1069   -3.5965 H         1 <0>         0.0671
     56 H27        -4.3370   -3.4449   -4.1068 H         1 <0>         0.0753
     57 H28        -2.8489   -2.9578   -4.9534 H         1 <0>         0.0646
     58 H29        -3.7256   -1.5381   -1.0165 H         1 <0>         0.0712
     59 H30        -4.9090   -2.5074   -1.9265 H         1 <0>         0.0632
     60 H31        -3.4463   -3.2780   -1.2670 H         1 <0>         0.0724
     61 H32        -7.7026   -2.8800   -7.0080 H         1 <0>         0.0760
     62 H33        -6.0404   -2.4302   -7.4587 H         1 <0>         0.0565
     63 H34        -6.2470   -4.7735   -7.0443 H         1 <0>         0.3845
     64 H35        -9.0079    0.1319   -6.3260 H         1 <0>         0.3944
     65 H36        -7.4601    2.3181   -4.1746 H         1 <0>         0.3948
     66 H37        -4.5065    1.3683   -2.7016 H         1 <0>         0.3929
     67 H38        -1.4731   -3.4265   -1.4270 H         1 <0>         0.3727
@<TRIPOS>BOND
     1    1    2 1
     2    1   36 1
     3    1   37 1
     4    1   38 1
     5    2    3 2
     6    2   11 1
     7    3    4 1
     8    3   39 1
     9    4    5 1
    10    4   40 1
    11    4   41 1
    12    5    6 1
    13    5   42 1
    14    5   43 1
    15    6    7 1
    16    6    8 1
    17    6   10 1
    18    7   44 1
    19    7   45 1
    20    7   46 1
    21    8    9 2
    22    8   47 1
    23    9   48 1
    24    9   49 1
    25   10   50 1
    26   11   12 1
    27   11   51 1
    28   11   52 1
    29   12   13 1
    30   12   53 1
    31   12   54 1
    32   13   14 1
    33   13   15 1
    34   13   35 1
    35   15   16 1
    36   15   17 1
    37   15   18 1
    38   16   55 1
    39   16   56 1
    40   16   57 1
    41   17   58 1
    42   17   59 1
    43   17   60 1
    44   18   19 1
    45   19   20 1
    46   19   29 1
    47   19   21 1
    48   21   22 1
    49   21   23 1
    50   21   34 1
    51   23   24 1
    52   23   25 1
    53   23   33 1
    54   25   26 1
    55   25   27 1
    56   25   32 1
    57   27   28 1
    58   27   29 1
    59   27   30 1
    60   30   31 1
    61   30   61 1
    62   30   62 1
    63   31   63 1
    64   32   64 1
    65   33   65 1
    66   34   66 1
    67   35   67 1
@<TRIPOS>MOLECULE
ZINC44682097
   60    60     0     0     0
SMALL
USER_CHARGES

@<TRIPOS>ATOM
      1 C1         -0.0127    1.0858    0.0080 C.3       1 <0>        -0.1393
      2 C2         -0.7416    1.5850   -1.2129 C.ar      1 <0>         0.1292
      3 C3         -2.1115    1.7950   -1.1564 C.ar      1 <0>         0.1211
      4 C4         -2.7717    2.2565   -2.2909 C.ar      1 <0>         0.0132
      5 C5         -2.0282    2.4885   -3.4366 C.ar      1 <0>        -0.0665
      6 C6         -0.6656    2.2557   -3.4156 C.ar      1 <0>         0.1422
      7 N1         -0.0697    1.8229   -2.3220 N.ar      1 <0>        -0.4288
      8 C7         -2.6970    2.9882   -4.6912 C.3       1 <0>         0.1137
      9 O1         -1.7196    3.1457   -5.7217 O.3       1 <0>        -0.5755
     10 C8         -4.2592    2.4977   -2.2739 C.3       1 <0>         0.0675
     11 N2         -4.5260    3.8825   -1.8628 N.3       1 <0>        -0.6492
     12 C9         -5.9694    4.1545   -1.8348 C.3       1 <0>         0.0986
     13 H1         -6.4587    3.6029   -2.6376 H         1 <0>         0.1282
     14 C10        -6.2097    5.6534   -2.0257 C.3       1 <0>        -0.1025
     15 C11        -5.7463    6.0704   -3.4229 C.3       1 <0>        -0.1217
     16 C12        -5.9866    7.5693   -3.6138 C.3       1 <0>         0.1336
     17 N3         -5.5429    7.9685   -4.9516 N.am      1 <0>        -0.7138
     18 C13        -5.6583    9.2526   -5.3446 C.2       1 <0>         0.6480
     19 O2         -6.1303   10.0790   -4.5892 O.2       1 <0>        -0.5605
     20 O3         -5.2505    9.6195   -6.5741 O.3       1 <0>        -0.3599
     21 C14        -5.4025   10.9966   -6.9240 C.3       1 <0>         0.1356
     22 C15        -4.6005   11.8618   -5.9496 C.3       1 <0>        -0.1865
     23 C16        -4.8882   11.2210   -8.3474 C.3       1 <0>        -0.1415
     24 C17        -6.8814   11.3816   -6.8494 C.3       1 <0>        -0.1872
     25 C18        -6.5368    3.7196   -0.5082 C.2       1 <0>         0.4343
     26 O4         -5.8131    3.2331    0.3282 O.2       1 <0>        -0.5113
     27 O5         -7.8462    3.8729   -0.2556 O.3       1 <0>        -0.3436
     28 C19        -8.3156    3.4388    1.0224 C.3       1 <0>         0.0308
     29 O6         -2.7992    1.5528   -0.0094 O.3       1 <0>        -0.4535
     30 H2          0.0021   -0.0041    0.0020 H         1 <0>         0.1185
     31 H3          1.0099    1.4631    0.0003 H         1 <0>         0.1003
     32 H4         -0.5229    1.4373    0.9048 H         1 <0>         0.1166
     33 H5         -0.0808    2.4344   -4.3058 H         1 <0>         0.2210
     34 H6         -3.4507    2.2692   -5.0122 H         1 <0>         0.0872
     35 H7         -3.1725    3.9485   -4.4917 H         1 <0>         0.0989
     36 H8         -2.0800    3.4653   -6.5601 H         1 <0>         0.4090
     37 H9         -4.6659    2.3299   -3.2712 H         1 <0>         0.1110
     38 H10        -4.7304    1.8123   -1.5694 H         1 <0>         0.0838
     39 H11        -7.2728    5.8677   -1.9164 H         1 <0>         0.0938
     40 H12        -5.6479    6.2098   -1.2754 H         1 <0>         0.0788
     41 H13        -4.6832    5.8560   -3.5321 H         1 <0>         0.0828
     42 H14        -6.3081    5.5139   -4.1731 H         1 <0>         0.0744
     43 H15        -7.0498    7.7836   -3.5045 H         1 <0>         0.0735
     44 H16        -5.4249    8.1257   -2.8635 H         1 <0>         0.0717
     45 H17        -5.1661    7.3088   -5.5546 H         1 <0>         0.4042
     46 H18        -3.5469   11.5876   -6.0027 H         1 <0>         0.0586
     47 H19        -4.7165   12.9123   -6.2165 H         1 <0>         0.0727
     48 H20        -4.9669   11.7020   -4.9356 H         1 <0>         0.0865
     49 H21        -5.4595   10.6047   -9.0415 H         1 <0>         0.0672
     50 H22        -5.0041   12.2715   -8.6142 H         1 <0>         0.0831
     51 H23        -3.8346   10.9468   -8.4005 H         1 <0>         0.0663
     52 H24        -7.2478   11.2217   -5.8354 H         1 <0>         0.0868
     53 H25        -6.9973   12.4320   -7.1162 H         1 <0>         0.0727
     54 H26        -7.4527   10.7652   -7.5435 H         1 <0>         0.0600
     55 H27        -9.3880    3.6191    1.0960 H         1 <0>         0.1093
     56 H28        -8.1174    2.3734    1.1396 H         1 <0>         0.0634
     57 H29        -7.7993    3.9928    1.8064 H         1 <0>         0.0648
     58 H30        -4.1030    4.0822   -0.9688 H         1 <0>         0.3573
     59 H31         0.8885    1.6720   -2.3349 H         1 <0>         0.4531
     60 H32        -2.8599    2.3160    0.5814 H         1 <0>         0.4181
@<TRIPOS>BOND
     1    1   30 1
     2    1   31 1
     3    1   32 1
     4    1    2 1
     5    2    3 ar
     6    2    7 ar
     7    3   29 1
     8    3    4 ar
     9    4    5 ar
    10    4   10 1
    11    5    6 ar
    12    5    8 1
    13    6    7 ar
    14    6   33 1
    15    7   59 1
    16    8    9 1
    17    8   34 1
    18    8   35 1
    19    9   36 1
    20   10   11 1
    21   10   37 1
    22   10   38 1
    23   11   12 1
    24   11   58 1
    25   12   13 1
    26   12   14 1
    27   12   25 1
    28   14   15 1
    29   14   39 1
    30   14   40 1
    31   15   16 1
    32   15   41 1
    33   15   42 1
    34   16   17 1
    35   16   43 1
    36   16   44 1
    37   17   18 am
    38   17   45 1
    39   18   19 2
    40   18   20 1
    41   20   21 1
    42   21   22 1
    43   21   23 1
    44   21   24 1
    45   22   46 1
    46   22   47 1
    47   22   48 1
    48   23   49 1
    49   23   50 1
    50   23   51 1
    51   24   52 1
    52   24   53 1
    53   24   54 1
    54   25   26 2
    55   25   27 1
    56   27   28 1
    57   28   55 1
    58   28   56 1
    59   28   57 1
    60   29   60 1
@<TRIPOS>MOLECULE
ZINC06134079
   69    70     0     0     0
SMALL
USER_CHARGES
4-amino-N'-[1-(isopentylcarbamoyl)-3-methyl-butyl]-N'-[(4-methoxyphenyl)methyl]isothiazole-3,5-dicarboxamide
@<TRIPOS>ATOM
      1 C1         11.3906   -3.1161    3.2982 C.3       1 <0>        -0.1477
      2 C2          9.9472   -2.6335    3.4544 C.3       1 <0>        -0.0936
      3 C3          9.8383   -1.7434    4.6940 C.3       1 <0>        -0.1525
      4 C4          9.5398   -1.8340    2.2151 C.3       1 <0>        -0.1263
      5 C5          8.0601   -1.4578    2.3146 C.3       1 <0>         0.1208
      6 N1          7.6700   -0.6923    1.1280 N.am      1 <0>        -0.7338
      7 C6          6.4031   -0.2514    0.9970 C.2       1 <0>         0.5056
      8 O1          5.5861   -0.4884    1.8614 O.2       1 <0>        -0.5044
      9 C7          6.0018    0.5361   -0.2236 C.3       1 <0>         0.1405
     10 H1          6.6039    1.4426   -0.2853 H         1 <0>         0.1146
     11 C8          6.2290   -0.3132   -1.4759 C.3       1 <0>        -0.1288
     12 C9          5.9404    0.5273   -2.7213 C.3       1 <0>        -0.0946
     13 C10         6.9575    1.6664   -2.8148 C.3       1 <0>        -0.1526
     14 C11         6.0462   -0.3544   -3.9673 C.3       1 <0>        -0.1468
     15 N2          4.5850    0.8963   -0.1283 N.am      1 <0>        -0.5899
     16 C12         4.1861    2.3059   -0.1276 C.3       1 <0>         0.1606
     17 C13         4.2773    2.8531    1.2736 C.ar      1 <0>        -0.1490
     18 C14         3.1656    2.8342    2.0955 C.ar      1 <0>        -0.0663
     19 C15         3.2481    3.3300    3.3823 C.ar      1 <0>        -0.2015
     20 C16         4.4446    3.8576    3.8457 C.ar      1 <0>         0.1374
     21 C17         5.5571    3.8805    3.0171 C.ar      1 <0>        -0.1484
     22 C18         5.4709    3.3783    1.7330 C.ar      1 <0>        -0.0589
     23 O2          4.5270    4.3506    5.1095 O.3       1 <0>        -0.3163
     24 C19         3.3421    4.2943    5.9063 C.3       1 <0>         0.0257
     25 C20         3.6486   -0.0691   -0.0413 C.2       1 <0>         0.6328
     26 O3          3.9838   -1.2334    0.0747 O.2       1 <0>        -0.5143
     27 C21         2.2280    0.2827   -0.0863 C.2       1 <0>        -0.3854
     28 C22         1.1108   -0.5526   -0.1427 C.2       1 <0>         0.2743
     29 C23        -0.0880    0.1601   -0.1723 C.2       1 <0>        -0.0283
     30 N3         -0.0561    1.4741   -0.1460 N.2       1 <0>        -0.4632
     31 S1          1.4626    1.8907   -0.0832 S.3       1 <0>         0.4483
     32 C24        -1.3772   -0.5528   -0.2330 C.2       1 <0>         0.6001
     33 O4         -1.3992   -1.7684   -0.2576 O.2       1 <0>        -0.5410
     34 N4         -2.5312    0.1428   -0.2613 N.am      1 <0>        -0.8306
     35 N5          1.1848   -1.9388   -0.1670 N.pl3     1 <0>        -0.8042
     36 H2         12.0512   -2.2562    3.1872 H         1 <0>         0.0550
     37 H3         11.6809   -3.6857    4.1810 H         1 <0>         0.0565
     38 H4         11.4682   -3.7502    2.4150 H         1 <0>         0.0548
     39 H5          9.2866   -3.4934    3.5654 H         1 <0>         0.0727
     40 H6          8.8100   -1.3996    4.8053 H         1 <0>         0.0575
     41 H7         10.1286   -2.3130    5.5769 H         1 <0>         0.0557
     42 H8         10.4989   -0.8835    4.5830 H         1 <0>         0.0551
     43 H9          9.7016   -2.4391    1.3230 H         1 <0>         0.0691
     44 H10        10.1418   -0.9275    2.1535 H         1 <0>         0.0692
     45 H11         7.8982   -0.8528    3.2068 H         1 <0>         0.0680
     46 H12         7.4580   -2.3644    2.3763 H         1 <0>         0.0654
     47 H13         8.3234   -0.5028    0.4367 H         1 <0>         0.3968
     48 H14         7.2637   -0.6552   -1.5001 H         1 <0>         0.0774
     49 H15         5.5618   -1.1749   -1.4564 H         1 <0>         0.0909
     50 H16         4.9349    0.9426   -2.6544 H         1 <0>         0.0725
     51 H17         6.7519    2.2652   -3.7021 H         1 <0>         0.0585
     52 H18         6.8822    2.2945   -1.9272 H         1 <0>         0.0529
     53 H19         7.9631    1.2511   -2.8817 H         1 <0>         0.0577
     54 H20         5.3216   -1.1659   -3.9007 H         1 <0>         0.0543
     55 H21         5.8406    0.2444   -4.8546 H         1 <0>         0.0562
     56 H22         7.0517   -0.7697   -4.0342 H         1 <0>         0.0554
     57 H23         4.8490    2.8715   -0.7824 H         1 <0>         0.1045
     58 H24         3.1603    2.3934   -0.4858 H         1 <0>         0.0774
     59 H25         2.2332    2.4274    1.7328 H         1 <0>         0.1237
     60 H26         2.3808    3.3110    4.0255 H         1 <0>         0.1292
     61 H27         6.4895    4.2910    3.3754 H         1 <0>         0.1322
     62 H28         6.3367    3.3957    1.0877 H         1 <0>         0.1270
     63 H29         2.5502    4.8644    5.4206 H         1 <0>         0.0571
     64 H30         3.0275    3.2566    6.0167 H         1 <0>         0.0564
     65 H31         3.5449    4.7190    6.8895 H         1 <0>         0.1019
     66 H32        -2.5136    1.1124   -0.2418 H         1 <0>         0.4116
     67 H33        -3.3793   -0.3262   -0.3013 H         1 <0>         0.4095
     68 H34         0.3723   -2.4673   -0.2064 H         1 <0>         0.4186
     69 H35         2.0490   -2.3789   -0.1445 H         1 <0>         0.4170
@<TRIPOS>BOND
     1    1    2 1
     2    1   36 1
     3    1   37 1
     4    1   38 1
     5    2    3 1
     6    2    4 1
     7    2   39 1
     8    3   40 1
     9    3   41 1
    10    3   42 1
    11    4    5 1
    12    4   43 1
    13    4   44 1
    14    5    6 1
    15    5   45 1
    16    5   46 1
    17    6    7 am
    18    6   47 1
    19    7    8 2
    20    7    9 1
    21    9   10 1
    22    9   11 1
    23    9   15 1
    24   11   12 1
    25   11   48 1
    26   11   49 1
    27   12   13 1
    28   12   14 1
    29   12   50 1
    30   13   51 1
    31   13   52 1
    32   13   53 1
    33   14   54 1
    34   14   55 1
    35   14   56 1
    36   15   16 1
    37   15   25 am
    38   16   17 1
    39   16   57 1
    40   16   58 1
    41   17   22 ar
    42   17   18 ar
    43   18   19 ar
    44   18   59 1
    45   19   20 ar
    46   19   60 1
    47   20   21 ar
    48   20   23 1
    49   21   22 ar
    50   21   61 1
    51   22   62 1
    52   23   24 1
    53   24   63 1
    54   24   64 1
    55   24   65 1
    56   25   26 2
    57   25   27 1
    58   27   31 1
    59   27   28 2
    60   28   29 1
    61   28   35 1
    62   29   30 2
    63   29   32 1
    64   30   31 1
    65   32   33 2
    66   32   34 am
    67   34   66 1
    68   34   67 1
    69   35   68 1
    70   35   69 1
@<TRIPOS>MOLECULE
ZINC07779505
   64    64     0     0     0
SMALL
USER_CHARGES
N-isobutyl-2-[isobutylcarbamoylmethyl-[1-(4-sulfamoylphenyl)ethyl]amino]-acetamide
@<TRIPOS>ATOM
      1 C1          3.7746    2.1753   -3.3551 C.3       1 <0>        -0.1542
      2 C2          4.4220    1.6911   -2.0561 C.3       1 <0>        -0.1094
      3 C3          5.8390    2.2583   -1.9502 C.3       1 <0>        -0.1497
      4 C4          3.5911    2.1685   -0.8634 C.3       1 <0>         0.1173
      5 N1          2.2725    1.5311   -0.9003 N.am      1 <0>        -0.6964
      6 C5          1.3651    1.8038    0.0582 C.2       1 <0>         0.5054
      7 O1          1.6401    2.5768    0.9513 O.2       1 <0>        -0.5304
      8 C6          0.0088    1.1481    0.0201 C.3       1 <0>        -0.0356
      9 C7         -1.0212    2.9353    1.2880 C.3       1 <0>        -0.0451
     10 C8         -2.1532    3.2575    0.3468 C.2       1 <0>         0.4997
     11 O2         -2.6173    2.3904   -0.3628 O.2       1 <0>        -0.5333
     12 N2         -2.6498    4.5093    0.2937 N.am      1 <0>        -0.6990
     13 C9         -3.7502    4.8226   -0.6213 C.3       1 <0>         0.1172
     14 C10        -4.1214    6.3006   -0.4854 C.3       1 <0>        -0.1089
     15 C11        -2.9488    7.1659   -0.9514 C.3       1 <0>        -0.1538
     16 C12        -5.3497    6.5993   -1.3473 C.3       1 <0>        -0.1497
     17 C13        -0.0150    1.0580    2.4396 C.3       1 <0>         0.0571
     18 H1          0.9591    1.5457    2.4758 H         1 <0>         0.1758
     19 C14         0.1756   -0.4594    2.3968 C.3       1 <0>        -0.1793
     20 C15        -0.8089    1.4302    3.6653 C.ar      1 <0>        -0.0779
     21 C16        -2.1849    1.2973    3.6642 C.ar      1 <0>        -0.1505
     22 C17        -2.9127    1.6342    4.7902 C.ar      1 <0>        -0.0011
     23 C18        -2.2655    2.1137    5.9136 C.ar      1 <0>        -0.6576
     24 C19        -0.8900    2.2515    5.9129 C.ar      1 <0>        -0.0013
     25 C20        -0.1617    1.9097    4.7887 C.ar      1 <0>        -0.1057
     26 S1         -3.1938    2.5499    7.3463 S.o2      1 <0>         2.6966
     27 O3         -4.4082    1.8147    7.2827 O.2       1 <0>        -0.9507
     28 O4         -2.3041    2.4573    8.4504 O.2       1 <0>        -0.9491
     29 N3         -3.6001    4.1485    7.1985 N.pl3     1 <0>        -1.2469
     30 H2          3.7310    3.2644   -3.3554 H         1 <0>         0.0608
     31 H3          4.3665    1.8351   -4.2048 H         1 <0>         0.0670
     32 H4          2.7651    1.7712   -3.4305 H         1 <0>         0.0510
     33 H5          4.4656    0.6020   -2.0558 H         1 <0>         0.0812
     34 H6          6.3002    1.9134   -1.0248 H         1 <0>         0.0613
     35 H7          6.4309    1.9182   -2.7999 H         1 <0>         0.0683
     36 H8          5.7954    3.3474   -1.9505 H         1 <0>         0.0615
     37 H9          3.4729    3.2510   -0.9129 H         1 <0>         0.0812
     38 H10         4.0984    1.9005    0.0634 H         1 <0>         0.0818
     39 H11         2.0526    0.9128   -1.6147 H         1 <0>         0.4121
     40 H12        -0.5397    1.4982   -0.8543 H         1 <0>         0.1690
     41 H13         0.1297    0.0662   -0.0360 H         1 <0>         0.1638
     42 H14        -1.3023    3.2146    2.3035 H         1 <0>         0.1582
     43 H15        -0.1322    3.4917    0.9911 H         1 <0>         0.1798
     44 H16        -2.2786    5.2029    0.8612 H         1 <0>         0.4109
     45 H17        -3.4398    4.6186   -1.6461 H         1 <0>         0.0806
     46 H18        -4.6148    4.2066   -0.3741 H         1 <0>         0.0813
     47 H19        -4.3462    6.5244    0.5574 H         1 <0>         0.0807
     48 H20        -2.7240    6.9422   -1.9942 H         1 <0>         0.0608
     49 H21        -3.2133    8.2189   -0.8546 H         1 <0>         0.0667
     50 H22        -2.0737    6.9531   -0.3373 H         1 <0>         0.0506
     51 H23        -6.1851    5.9828   -1.0154 H         1 <0>         0.0615
     52 H24        -5.6142    7.6523   -1.2505 H         1 <0>         0.0681
     53 H25        -5.1250    6.3755   -2.3902 H         1 <0>         0.0615
     54 H26         0.7498   -0.7286    1.5103 H         1 <0>         0.0850
     55 H27         0.7114   -0.7836    3.2890 H         1 <0>         0.1138
     56 H28        -0.7985   -0.9472    2.3607 H         1 <0>         0.0867
     57 H29        -2.6909    0.9269    2.7850 H         1 <0>         0.1306
     58 H30        -3.9873    1.5269    4.7906 H         1 <0>         0.1564
     59 H31        -0.3844    2.6265    6.7904 H         1 <0>         0.1590
     60 H32         0.9129    2.0177    4.7880 H         1 <0>         0.1493
     61 H33        -3.3195    4.6499    6.4171 H         1 <0>         0.4153
     62 H34        -4.1186    4.5833    7.8935 H         1 <0>         0.4274
     63 N4         -0.7622    1.4810    1.2364 N.4       1 <0>        -0.3622
     64 H35        -1.6597    0.9831    1.2091 H         1 <0>         0.4356
@<TRIPOS>BOND
     1    1    2 1
     2    1   30 1
     3    1   31 1
     4    1   32 1
     5    2    3 1
     6    2    4 1
     7    2   33 1
     8    3   34 1
     9    3   35 1
    10    3   36 1
    11    4    5 1
    12    4   37 1
    13    4   38 1
    14    5    6 am
    15    5   39 1
    16    6    7 2
    17    6    8 1
    18    8   40 1
    19    8   41 1
    20    8   63 1
    21    9   10 1
    22    9   42 1
    23    9   43 1
    24    9   63 1
    25   10   11 2
    26   10   12 am
    27   12   13 1
    28   12   44 1
    29   13   14 1
    30   13   45 1
    31   13   46 1
    32   14   15 1
    33   14   16 1
    34   14   47 1
    35   15   48 1
    36   15   49 1
    37   15   50 1
    38   16   51 1
    39   16   52 1
    40   16   53 1
    41   17   18 1
    42   17   19 1
    43   17   20 1
    44   17   63 1
    45   19   54 1
    46   19   55 1
    47   19   56 1
    48   20   25 ar
    49   20   21 ar
    50   21   22 ar
    51   21   57 1
    52   22   23 ar
    53   22   58 1
    54   23   24 ar
    55   23   26 1
    56   24   25 ar
    57   24   59 1
    58   25   60 1
    59   26   27 2
    60   26   28 2
    61   26   29 1
    62   29   61 1
    63   29   62 1
    64   63   64 1
@<TRIPOS>MOLECULE
ZINC16688490
   56    58     0     0     0
SMALL
USER_CHARGES
4-amino-N-[2-[[3-bromo-5-ethoxy-4-[(4-fluorophenyl)methoxy]phenyl]methylamino]ethyl]-1,2,5-oxadiazole-3-carboxamide
@<TRIPOS>ATOM
      1 C1         -3.5747   -0.8908    0.0300 C.3       1 <0>        -0.1578
      2 C2         -2.3752    0.0591    0.0241 C.3       1 <0>         0.0512
      3 O1         -1.1655   -0.7014    0.0089 O.3       1 <0>        -0.2911
      4 C3          0.0021   -0.0041    0.0020 C.ar      1 <0>         0.1311
      5 C4         -0.0167    1.3817    0.0096 C.ar      1 <0>        -0.1659
      6 C5          1.1707    2.0894    0.0021 C.ar      1 <0>        -0.1304
      7 C6          2.3792    1.4180   -0.0130 C.ar      1 <0>        -0.0898
      8 C7          2.4053    0.0351   -0.0207 C.ar      1 <0>        -0.0824
      9 C8          1.2177   -0.6803   -0.0132 C.ar      1 <0>         0.1309
     10 O2          1.2412   -2.0402   -0.0212 O.3       1 <0>        -0.3075
     11 C9          1.2405   -2.6816   -1.2982 C.3       1 <0>         0.1140
     12 C10         1.2681   -4.1765   -1.1095 C.ar      1 <0>        -0.1132
     13 C11         2.4780   -4.8416   -1.0398 C.ar      1 <0>        -0.0615
     14 C12         2.5046   -6.2119   -0.8620 C.ar      1 <0>        -0.1568
     15 C13         1.3188   -6.9199   -0.7641 C.ar      1 <0>         0.1170
     16 C14         0.1075   -6.2533   -0.8393 C.ar      1 <0>        -0.1571
     17 C15         0.0835   -4.8823   -1.0119 C.ar      1 <0>        -0.0609
     18 F1          1.3435   -8.2600   -0.5950 F         1 <0>        -0.1331
     19 Br1         4.0603   -0.8794   -0.0407 Br        1 <0>         0.0042
     20 C16         1.1479    3.5962    0.0104 C.3       1 <0>         0.0541
     21 C17         1.1318    5.5464    1.4452 C.3       1 <0>        -0.0187
     22 C18         1.1385    6.0099    2.9033 C.3       1 <0>         0.0949
     23 N1          1.1167    7.4740    2.9505 N.am      1 <0>        -0.7178
     24 C19         1.1183    8.1101    4.1387 C.2       1 <0>         0.6288
     25 O3          1.1378    7.4692    5.1709 O.2       1 <0>        -0.5065
     26 C20         1.0962    9.5904    4.1864 C.2       1 <0>        -0.1044
     27 C21         1.0939   10.4794    5.3704 C.2       1 <0>         0.3306
     28 N2          1.0706   11.6756    4.8290 N.2       1 <0>        -0.4038
     29 O4          1.0607   11.5725    3.6250 O.3       1 <0>         0.3603
     30 N3          1.0795   10.4460    3.1874 N.2       1 <0>        -0.3064
     31 N4          1.1122   10.1350    6.7149 N.pl3     1 <0>        -0.7981
     32 H1         -4.4974   -0.3107    0.0415 H         1 <0>         0.0860
     33 H2         -3.5487   -1.5144   -0.8637 H         1 <0>         0.0717
     34 H3         -3.5324   -1.5239    0.9162 H         1 <0>         0.0724
     35 H4         -2.4012    0.6827    0.9177 H         1 <0>         0.0650
     36 H5         -2.4175    0.6922   -0.8621 H         1 <0>         0.0670
     37 H6         -0.9593    1.9088    0.0170 H         1 <0>         0.1478
     38 H7          3.3048    1.9745   -0.0192 H         1 <0>         0.1490
     39 H8          0.3404   -2.4010   -1.8452 H         1 <0>         0.0707
     40 H9          2.1201   -2.3702   -1.8616 H         1 <0>         0.0700
     41 H10         3.4028   -4.2897   -1.1202 H         1 <0>         0.1340
     42 H11         3.4500   -6.7307   -0.8034 H         1 <0>         0.1412
     43 H12        -0.8181   -6.8045   -0.7628 H         1 <0>         0.1410
     44 H13        -0.8612   -4.3621   -1.0703 H         1 <0>         0.1349
     45 H14         2.0273    3.9757   -0.5098 H         1 <0>         0.1460
     46 H15         0.2476    3.9487   -0.4930 H         1 <0>         0.1438
     47 H16         2.0111    5.9395    0.9350 H         1 <0>         0.1437
     48 H17         0.2314    5.9125    0.9518 H         1 <0>         0.1427
     49 H18         0.2592    5.6168    3.4136 H         1 <0>         0.0963
     50 H19         2.0389    5.6439    3.3968 H         1 <0>         0.0971
     51 H20         1.1011    7.9856    2.1265 H         1 <0>         0.4172
     52 H21         1.1292    9.2010    6.9762 H         1 <0>         0.4288
     53 H22         1.1081   10.8284    7.3933 H         1 <0>         0.4225
     54 N5          1.1539    4.0721    1.4066 N.4       1 <0>        -0.5157
     55 H23         2.0020    3.7336    1.8762 H         1 <0>         0.4375
     56 H24         0.3255    3.7081    1.8920 H         1 <0>         0.4358
@<TRIPOS>BOND
     1    1    2 1
     2    1   32 1
     3    1   33 1
     4    1   34 1
     5    2    3 1
     6    2   35 1
     7    2   36 1
     8    3    4 1
     9    4    9 ar
    10    4    5 ar
    11    5    6 ar
    12    5   37 1
    13    6    7 ar
    14    6   20 1
    15    7    8 ar
    16    7   38 1
    17    8    9 ar
    18    8   19 1
    19    9   10 1
    20   10   11 1
    21   11   12 1
    22   11   39 1
    23   11   40 1
    24   12   17 ar
    25   12   13 ar
    26   13   14 ar
    27   13   41 1
    28   14   15 ar
    29   14   42 1
    30   15   16 ar
    31   15   18 1
    32   16   17 ar
    33   16   43 1
    34   17   44 1
    35   20   45 1
    36   20   46 1
    37   20   54 1
    38   21   22 1
    39   21   47 1
    40   21   48 1
    41   21   54 1
    42   22   23 1
    43   22   49 1
    44   22   50 1
    45   23   24 am
    46   23   51 1
    47   24   25 2
    48   24   26 1
    49   26   30 2
    50   26   27 1
    51   27   28 2
    52   27   31 1
    53   28   29 1
    54   29   30 1
    55   31   52 1
    56   31   53 1
    57   54   55 1
    58   54   56 1
@<TRIPOS>MOLECULE
ZINC35050063
   67    67     0     0     0
SMALL
USER_CHARGES

@<TRIPOS>ATOM
      1 C1          0.1287    2.0202   -0.7575 C.3       1 <0>        -0.1182
      2 C2          0.2038    0.5645   -0.3751 C.2       1 <0>        -0.1269
      3 C3          0.4113    0.2250    0.8730 C.2       1 <0>        -0.1633
      4 C4          0.4508    1.2833    1.9452 C.3       1 <0>        -0.0919
      5 C5         -0.5642    0.9407    3.0375 C.3       1 <0>        -0.1315
      6 C6         -0.5241    2.0152    4.1261 C.3       1 <0>         0.1571
      7 C7         -0.8719    3.3739    3.5146 C.3       1 <0>        -0.1374
      8 C8         -1.5239    1.6778    5.2020 C.2       1 <0>        -0.1885
      9 C9         -1.1211    1.4872    6.4339 C.2       1 <0>        -0.1817
     10 O1          0.7863    2.0696    4.6936 O.3       1 <0>        -0.5543
     11 C10         0.0402   -0.5007   -1.4285 C.3       1 <0>        -0.0797
     12 C11        -1.4483   -0.7844   -1.6401 C.3       1 <0>        -0.1403
     13 C12        -1.6144   -1.8658   -2.7096 C.3       1 <0>         0.1237
     14 H1         -1.0967   -1.5602   -3.6188 H         1 <0>         0.1075
     15 C13        -3.1017   -2.0611   -3.0107 C.3       1 <0>         0.0840
     16 C14        -3.2757   -3.2264   -3.9867 C.3       1 <0>        -0.1652
     17 C15        -3.8491   -2.3680   -1.7115 C.3       1 <0>        -0.1892
     18 O2         -3.6302   -0.8683   -3.5939 O.3       1 <0>        -0.3497
     19 C16        -5.0240   -0.9397   -3.9010 C.3       1 <0>         0.2231
     20 H2         -5.5606   -1.3721   -3.0565 H         1 <0>         0.0699
     21 C17        -5.5583    0.4678   -4.1788 C.3       1 <0>         0.0591
     22 H3         -4.9948    0.9164   -4.9969 H         1 <0>         0.0829
     23 C18        -7.0376    0.3767   -4.5658 C.3       1 <0>         0.0852
     24 H4         -7.6091   -0.0259   -3.7295 H         1 <0>         0.0754
     25 C19        -7.1810   -0.5492   -5.7775 C.3       1 <0>         0.0903
     26 H5         -6.6502   -0.1211   -6.6279 H         1 <0>         0.0793
     27 C20        -6.5840   -1.9174   -5.4380 C.3       1 <0>         0.1075
     28 H6         -7.1412   -2.3627   -4.6137 H         1 <0>         0.0788
     29 O3         -5.2160   -1.7577   -5.0569 O.3       1 <0>        -0.3692
     30 C21        -6.6695   -2.8297   -6.6632 C.3       1 <0>         0.0907
     31 O4         -6.2200   -4.1404   -6.3135 O.3       1 <0>        -0.5663
     32 O5         -8.5643   -0.6981   -6.1038 O.3       1 <0>        -0.5509
     33 O6         -7.5263    1.6783   -4.8961 O.3       1 <0>        -0.5559
     34 O7         -5.4189    1.2717   -3.0057 O.3       1 <0>        -0.5554
     35 O8         -1.0592   -3.0941   -2.2352 O.3       1 <0>        -0.5460
     36 H7          1.0317    2.5308   -0.4229 H         1 <0>         0.0652
     37 H8          0.0422    2.1074   -1.8405 H         1 <0>         0.0597
     38 H9         -0.7421    2.4754   -0.2856 H         1 <0>         0.0647
     39 H10         0.5541   -0.8133    1.1336 H         1 <0>         0.1056
     40 H11         1.4503    1.3248    2.3781 H         1 <0>         0.0747
     41 H12         0.2031    2.2512    1.5096 H         1 <0>         0.0746
     42 H13        -1.5637    0.8992    2.6047 H         1 <0>         0.0717
     43 H14        -0.3164   -0.0272    3.4732 H         1 <0>         0.0647
     44 H15        -1.8714    3.3323    3.0817 H         1 <0>         0.0702
     45 H16        -0.8433    4.1393    4.2901 H         1 <0>         0.0626
     46 H17        -0.1488    3.6179    2.7364 H         1 <0>         0.0683
     47 H18        -2.5724    1.5931    4.9575 H         1 <0>         0.1144
     48 H19        -1.8376    1.2454    7.2050 H         1 <0>         0.0997
     49 H20        -0.0726    1.5718    6.6784 H         1 <0>         0.1043
     50 H21         1.0735    1.2406    5.1002 H         1 <0>         0.3752
     51 H22         0.4812   -0.1571   -2.3642 H         1 <0>         0.0673
     52 H23         0.5413   -1.4127   -1.1039 H         1 <0>         0.0727
     53 H24        -1.8893   -1.1280   -0.7044 H         1 <0>         0.0680
     54 H25        -1.9494    0.1276   -1.9646 H         1 <0>         0.0783
     55 H26        -2.7654   -4.1068   -3.5961 H         1 <0>         0.0671
     56 H27        -4.3369   -3.4448   -4.1064 H         1 <0>         0.0752
     57 H28        -2.8488   -2.9579   -4.9531 H         1 <0>         0.0646
     58 H29        -3.7252   -1.5378   -1.0162 H         1 <0>         0.0713
     59 H30        -4.9087   -2.5071   -1.9260 H         1 <0>         0.0632
     60 H31        -3.4460   -3.2778   -1.2667 H         1 <0>         0.0724
     61 H32        -7.7024   -2.8797   -7.0077 H         1 <0>         0.0760
     62 H33        -6.0402   -2.4300   -7.4584 H         1 <0>         0.0565
     63 H34        -6.2469   -4.7733   -7.0440 H         1 <0>         0.3845
     64 H35        -9.0076    0.1322   -6.3256 H         1 <0>         0.3945
     65 H36        -7.4597    2.3183   -4.1743 H         1 <0>         0.3948
     66 H37        -4.5062    1.3684   -2.7013 H         1 <0>         0.3929
     67 H38        -1.4728   -3.4264   -1.4267 H         1 <0>         0.3727
@<TRIPOS>BOND
     1    1    2 1
     2    1   36 1
     3    1   37 1
     4    1   38 1
     5    2    3 2
     6    2   11 1
     7    3    4 1
     8    3   39 1
     9    4    5 1
    10    4   40 1
    11    4   41 1
    12    5    6 1
    13    5   42 1
    14    5   43 1
    15    6    7 1
    16    6    8 1
    17    6   10 1
    18    7   44 1
    19    7   45 1
    20    7   46 1
    21    8    9 2
    22    8   47 1
    23    9   48 1
    24    9   49 1
    25   10   50 1
    26   11   12 1
    27   11   51 1
    28   11   52 1
    29   12   13 1
    30   12   53 1
    31   12   54 1
    32   13   14 1
    33   13   15 1
    34   13   35 1
    35   15   16 1
    36   15   17 1
    37   15   18 1
    38   16   55 1
    39   16   56 1
    40   16   57 1
    41   17   58 1
    42   17   59 1
    43   17   60 1
    44   18   19 1
    45   19   20 1
    46   19   29 1
    47   19   21 1
    48   21   22 1
    49   21   23 1
    50   21   34 1
    51   23   24 1
    52   23   25 1
    53   23   33 1
    54   25   26 1
    55   25   27 1
    56   25   32 1
    57   27   28 1
    58   27   29 1
    59   27   30 1
    60   30   31 1
    61   30   61 1
    62   30   62 1
    63   31   63 1
    64   32   64 1
    65   33   65 1
    66   34   66 1
    67   35   67 1
@<TRIPOS>MOLECULE
ZINC19690753
   61    61     0     0     0
SMALL
USER_CHARGES

@<TRIPOS>ATOM
      1 C1         -0.0157    1.3058    0.0092 C.2       1 <0>        -0.1426
      2 C2          0.0021   -0.0041    0.0020 C.2       1 <0>        -0.1985
      3 C3         -1.2926   -0.7753    0.0102 C.3       1 <0>         0.1509
      4 N1         -1.3176   -1.6997   -1.1260 N.pl3     1 <0>        -0.6735
      5 C4         -2.3857   -2.4981   -1.3218 C.2       1 <0>         0.5555
      6 S1         -3.7132   -2.4319   -0.2428 S.2       1 <0>        -0.6206
      7 N2         -2.4086   -3.3485   -2.3671 N.pl3     1 <0>        -0.6976
      8 C5         -3.5696   -4.2163   -2.5800 C.3       1 <0>         0.1320
      9 C6         -3.3422   -5.0762   -3.8249 C.3       1 <0>        -0.1657
     10 C7         -4.5546   -5.9825   -4.0472 C.3       1 <0>        -0.0030
     11 N3         -4.3363   -6.8080   -5.2425 N.4       1 <0>        -0.3860
     12 C8         -4.2720   -5.9442   -6.4288 C.3       1 <0>        -0.0071
     13 C9         -4.0258   -6.8020   -7.6719 C.3       1 <0>         0.0265
     14 N4         -5.1154   -7.7780   -7.8138 N.3       1 <0>        -0.5386
     15 C10        -5.2079   -8.6339   -6.6226 C.3       1 <0>         0.0201
     16 C11        -5.4444   -7.7611   -5.3881 C.3       1 <0>        -0.0016
     17 C12        -4.9446   -8.5846   -9.0296 C.3       1 <0>         0.0591
     18 C13        -6.2101   -9.4081   -9.2773 C.3       1 <0>        -0.1325
     19 C14        -6.0323  -10.2482  -10.5436 C.3       1 <0>         0.1263
     20 N5         -7.2440  -11.0367  -10.7807 N.pl3     1 <0>        -0.6917
     21 C15        -7.3161  -11.8570  -11.8476 C.2       1 <0>         0.5574
     22 S2         -5.9917  -11.9777  -12.9257 S.2       1 <0>        -0.6312
     23 N6         -8.4309  -12.5824  -12.0657 N.pl3     1 <0>        -0.6781
     24 C16        -8.5093  -13.4741  -13.2254 C.3       1 <0>         0.1519
     25 C17        -9.8492  -14.1636  -13.2393 C.2       1 <0>        -0.1956
     26 C18       -10.6155  -14.0848  -14.2989 C.2       1 <0>        -0.1457
     27 H1          0.9122    1.8585    0.0033 H         1 <0>         0.1096
     28 H2         -0.9582    1.8330    0.0166 H         1 <0>         0.1053
     29 H3          0.9446   -0.5313   -0.0098 H         1 <0>         0.1169
     30 H4         -1.3737   -1.3393    0.9394 H         1 <0>         0.0990
     31 H5         -2.1295   -0.0812   -0.0676 H         1 <0>         0.0948
     32 H6         -0.5655   -1.7372   -1.7373 H         1 <0>         0.3994
     33 H7         -1.6565   -3.3860   -2.9785 H         1 <0>         0.3974
     34 H8         -3.7046   -4.8620   -1.7122 H         1 <0>         0.0970
     35 H9         -4.4604   -3.6038   -2.7192 H         1 <0>         0.0972
     36 H10        -3.2072   -4.4306   -4.6927 H         1 <0>         0.0942
     37 H11        -2.4514   -5.6887   -3.6857 H         1 <0>         0.0940
     38 H12        -4.6896   -6.6281   -3.1795 H         1 <0>         0.1393
     39 H13        -5.4454   -5.3700   -4.1865 H         1 <0>         0.1388
     40 H14        -5.2142   -5.4073   -6.5387 H         1 <0>         0.1402
     41 H15        -3.4576   -5.2290   -6.3137 H         1 <0>         0.1352
     42 H16        -3.9929   -6.1627   -8.5542 H         1 <0>         0.1256
     43 H17        -3.0770   -7.3286   -7.5683 H         1 <0>         0.0623
     44 H18        -6.0376   -9.3312   -6.7393 H         1 <0>         0.1248
     45 H19        -4.2787   -9.1907   -6.5017 H         1 <0>         0.0627
     46 H20        -5.4992   -8.3928   -4.5016 H         1 <0>         0.1376
     47 H21        -6.3806   -7.2148   -5.5034 H         1 <0>         0.1396
     48 H22        -4.7671   -7.9266   -9.8802 H         1 <0>         0.0965
     49 H23        -4.0939   -9.2545   -8.9047 H         1 <0>         0.0548
     50 H24        -6.3877  -10.0661   -8.4266 H         1 <0>         0.0701
     51 H25        -7.0609   -8.7382   -9.4022 H         1 <0>         0.0841
     52 H26        -5.8547   -9.5901  -11.3942 H         1 <0>         0.0904
     53 H27        -5.1815  -10.9181  -10.4187 H         1 <0>         0.0875
     54 H28        -7.9944  -10.9683  -10.1698 H         1 <0>         0.3964
     55 H29        -9.1813  -12.5141  -11.4549 H         1 <0>         0.3983
     56 H30        -8.3905  -12.8926  -14.1396 H         1 <0>         0.0934
     57 H31        -7.7173  -14.2205  -13.1641 H         1 <0>         0.0972
     58 H32       -10.1778  -14.7227  -12.3756 H         1 <0>         0.1162
     59 H33       -11.5758  -14.5789  -14.3088 H         1 <0>         0.1085
     60 H34       -10.2869  -13.5257  -15.1625 H         1 <0>         0.1050
     61 H35        -3.4683   -7.3137   -5.1478 H         1 <0>         0.4208
@<TRIPOS>BOND
     1    1    2 2
     2    1   27 1
     3    1   28 1
     4    2    3 1
     5    2   29 1
     6    3    4 1
     7    3   30 1
     8    3   31 1
     9    4    5 1
    10    4   32 1
    11    5    6 2
    12    5    7 1
    13    7    8 1
    14    7   33 1
    15    8    9 1
    16    8   34 1
    17    8   35 1
    18    9   10 1
    19    9   36 1
    20    9   37 1
    21   10   11 1
    22   10   38 1
    23   10   39 1
    24   11   16 1
    25   11   12 1
    26   11   61 1
    27   12   13 1
    28   12   40 1
    29   12   41 1
    30   13   14 1
    31   13   42 1
    32   13   43 1
    33   14   15 1
    34   14   17 1
    35   15   16 1
    36   15   44 1
    37   15   45 1
    38   16   46 1
    39   16   47 1
    40   17   18 1
    41   17   48 1
    42   17   49 1
    43   18   19 1
    44   18   50 1
    45   18   51 1
    46   19   20 1
    47   19   52 1
    48   19   53 1
    49   20   21 1
    50   20   54 1
    51   21   22 2
    52   21   23 1
    53   23   24 1
    54   23   55 1
    55   24   25 1
    56   24   56 1
    57   24   57 1
    58   25   26 2
    59   25   58 1
    60   26   59 1
    61   26   60 1
@<TRIPOS>MOLECULE
ZINC06264710
   52    54     0     0     0
SMALL
USER_CHARGES
2-[4-(4-amino-9-butyl-3-cyano-5-oxa-7,8-diazabicyclo[4.3.0]nona-3,6,9-trien-2-yl)-2-methoxy-phenoxy]acetamide
@<TRIPOS>ATOM
      1 C1          6.1092    1.1458    3.2772 C.3       1 <0>        -0.1549
      2 C2          4.6339    1.5274    3.4138 C.3       1 <0>        -0.1243
      3 C3          4.4244    2.9497    2.8904 C.3       1 <0>        -0.1157
      4 C4          2.9491    3.3313    3.0270 C.3       1 <0>        -0.0661
      5 C5          2.7427    4.7323    2.5115 C.2       1 <0>         0.1445
      6 C6          2.5337    5.0830    1.2336 C.2       1 <0>        -0.2666
      7 C7          2.3910    6.4871    1.1816 C.2       1 <0>         0.2688
      8 N1          2.5108    6.9490    2.3924 N.2       1 <0>        -0.2582
      9 N2          2.7341    5.8634    3.2540 N.pl3     1 <0>        -0.4631
     10 H1          2.8642    5.9168    4.2441 H         1 <0>         0.4565
     11 O1          2.1705    7.1467    0.0128 O.3       1 <0>        -0.2120
     12 C8          2.3591    6.4609   -1.1320 C.2       1 <0>         0.4421
     13 C9          2.4951    5.1205   -1.2074 C.2       1 <0>        -0.2653
     14 C10         2.4473    4.2198    0.0009 C.3       1 <0>         0.1274
     15 H2          3.2882    3.5266   -0.0225 H         1 <0>         0.0939
     16 C11         1.1527    3.4486    0.0096 C.ar      1 <0>        -0.0666
     17 C12        -0.0530    4.1250    0.0248 C.ar      1 <0>        -0.0944
     18 C13        -1.2434    3.4221    0.0324 C.ar      1 <0>        -0.1717
     19 C14        -1.2299    2.0366    0.0189 C.ar      1 <0>         0.0964
     20 C15        -0.0164    1.3557    0.0095 C.ar      1 <0>         0.1086
     21 C16         1.1732    2.0663    0.0020 C.ar      1 <0>        -0.1656
     22 O2          0.0021   -0.0041    0.0020 O.3       1 <0>        -0.3020
     23 C17         1.2839   -0.6354   -0.0136 C.3       1 <0>         0.0252
     24 O3         -2.4001    1.3437    0.0207 O.3       1 <0>        -0.2788
     25 C18        -3.6070    2.1087    0.0306 C.3       1 <0>         0.0382
     26 C19        -4.7920    1.1775    0.0311 C.2       1 <0>         0.5187
     27 O4         -4.6198   -0.0230    0.0237 O.2       1 <0>        -0.5136
     28 N3         -6.0430    1.6789    0.0397 N.am      1 <0>        -0.8514
     29 C20         2.6949    4.5259   -2.4947 C.1       1 <0>         0.2706
     30 N4          2.8534    4.0542   -3.5160 N.1       1 <0>        -0.4416
     31 N5          2.4160    7.1755   -2.3026 N.pl3     1 <0>        -0.8316
     32 H3          6.2585    0.1325    3.6501 H         1 <0>         0.0558
     33 H4          6.4013    1.1936    2.2282 H         1 <0>         0.0553
     34 H5          6.7190    1.8395    3.8561 H         1 <0>         0.0540
     35 H6          4.3419    1.4796    4.4629 H         1 <0>         0.0637
     36 H7          4.0241    0.8337    2.8350 H         1 <0>         0.0645
     37 H8          4.7165    2.9975    1.8413 H         1 <0>         0.0715
     38 H9          5.0342    3.6434    3.4693 H         1 <0>         0.0657
     39 H10         2.6570    3.2835    4.0761 H         1 <0>         0.0830
     40 H11         2.3393    2.6377    2.4481 H         1 <0>         0.0985
     41 H12        -0.0649    5.2049    0.0304 H         1 <0>         0.1210
     42 H13        -2.1838    3.9529    0.0443 H         1 <0>         0.1334
     43 H14         2.1164    1.5403   -0.0096 H         1 <0>         0.1366
     44 H15         1.1558   -1.7179   -0.0182 H         1 <0>         0.1012
     45 H16         1.8284   -0.3302   -0.9072 H         1 <0>         0.0550
     46 H17         1.8454   -0.3398    0.8726 H         1 <0>         0.0552
     47 H18        -3.6346    2.7323    0.9241 H         1 <0>         0.0935
     48 H19        -3.6430    2.7420   -0.8558 H         1 <0>         0.0935
     49 H20        -6.1807    2.6390    0.0456 H         1 <0>         0.4030
     50 H21        -6.8057    1.0795    0.0401 H         1 <0>         0.4096
     51 H22         2.3216    8.1407   -2.2867 H         1 <0>         0.4119
     52 H23         2.5506    6.7152   -3.1458 H         1 <0>         0.4267
@<TRIPOS>BOND
     1    1    2 1
     2    1   32 1
     3    1   33 1
     4    1   34 1
     5    2    3 1
     6    2   35 1
     7    2   36 1
     8    3    4 1
     9    3   37 1
    10    3   38 1
    11    4    5 1
    12    4   39 1
    13    4   40 1
    14    5    9 1
    15    5    6 2
    16    6   14 1
    17    6    7 1
    18    7    8 2
    19    7   11 1
    20    8    9 1
    21    9   10 1
    22   11   12 1
    23   12   13 2
    24   12   31 1
    25   13   14 1
    26   13   29 1
    27   14   15 1
    28   14   16 1
    29   16   21 ar
    30   16   17 ar
    31   17   18 ar
    32   17   41 1
    33   18   19 ar
    34   18   42 1
    35   19   20 ar
    36   19   24 1
    37   20   21 ar
    38   20   22 1
    39   21   43 1
    40   22   23 1
    41   23   44 1
    42   23   45 1
    43   23   46 1
    44   24   25 1
    45   25   26 1
    46   25   47 1
    47   25   48 1
    48   26   27 2
    49   26   28 am
    50   28   49 1
    51   28   50 1
    52   29   30 3
    53   31   51 1
    54   31   52 1
@<TRIPOS>MOLECULE
ZINC21318768
   51    53     0     0     0
SMALL
USER_CHARGES
2-[[4-amino-5-[(N'E)-N'-[(2-hydroxy-3-methoxy-phenyl)methylene]hydrazino]-1,2,4-triazol-3-yl]sulfanyl]-N-(o-tolyl)acetamide
@<TRIPOS>ATOM
      1 C1          3.3515    2.2104   -9.1998 C.3       1 <0>        -0.1179
      2 C2          4.5199    2.3705   -8.2616 C.ar      1 <0>        -0.1160
      3 C3          5.8085    2.3883   -8.7589 C.ar      1 <0>        -0.1001
      4 C4          6.8810    2.5360   -7.8989 C.ar      1 <0>        -0.1344
      5 C5          6.6676    2.6665   -6.5387 C.ar      1 <0>        -0.1038
      6 C6          5.3815    2.6543   -6.0358 C.ar      1 <0>        -0.1299
      7 C7          4.3023    2.5007   -6.8965 C.ar      1 <0>         0.1507
      8 N1          2.9982    2.4831   -6.3896 N.am      1 <0>        -0.6735
      9 C8          2.7768    2.1155   -5.1120 C.2       1 <0>         0.5380
     10 O1          3.6929    1.7045   -4.4317 O.2       1 <0>        -0.5055
     11 C9          1.3908    2.2151   -4.5287 C.3       1 <0>        -0.1455
     12 S1          1.4183    1.6511   -2.8048 S.3       1 <0>         0.0726
     13 C10        -0.2521    1.8263   -2.2723 C.2       1 <0>         0.1708
     14 N2         -1.2511    2.2663   -2.9996 N.2       1 <0>        -0.3069
     15 N3         -2.4039    2.2555   -2.2036 N.2       1 <0>        -0.3062
     16 C11        -2.0730    1.8047   -1.0178 C.2       1 <0>         0.4900
     17 N4         -0.7348    1.5247   -1.0305 N.pl3     1 <0>        -0.2638
     18 N5         -0.0070    1.0348    0.0166 N.3       1 <0>        -0.7784
     19 N6         -2.9302    1.6409    0.0607 N.pl3     1 <0>        -0.5661
     20 N7         -4.2862    1.9694   -0.0661 N.2       1 <0>        -0.1580
     21 C12        -5.0886    1.8161    0.9435 C.2       1 <0>         0.0869
     22 C13        -6.5151    2.1616    0.8102 C.ar      1 <0>        -0.0678
     23 C14        -7.3817    1.9979    1.8946 C.ar      1 <0>        -0.0849
     24 C15        -8.7156    2.3223    1.7658 C.ar      1 <0>        -0.1314
     25 C16        -9.2032    2.8109    0.5659 C.ar      1 <0>        -0.1542
     26 C17        -8.3553    2.9780   -0.5181 C.ar      1 <0>         0.0258
     27 C18        -7.0076    2.6608   -0.4014 C.ar      1 <0>         0.1762
     28 O2         -6.1722    2.8295   -1.4604 O.3       1 <0>        -0.4647
     29 O3         -8.8416    3.4581   -1.6940 O.3       1 <0>        -0.3248
     30 C19       -10.2355    3.7695   -1.7408 C.3       1 <0>         0.0299
     31 H1          3.7199    2.1228  -10.2326 H         1 <0>         0.0723
     32 H2          2.6931    3.0878   -9.1185 H         1 <0>         0.0684
     33 H3          2.7887    1.3037   -8.9331 H         1 <0>         0.0697
     34 H4          5.9785    2.2870   -9.8206 H         1 <0>         0.1258
     35 H5          7.8875    2.5500   -8.2902 H         1 <0>         0.1231
     36 H6          7.5073    2.7824   -5.8696 H         1 <0>         0.1251
     37 H7          5.2153    2.7607   -4.9740 H         1 <0>         0.1446
     38 H8          2.1538    2.7693   -7.0339 H         1 <0>         0.4386
     39 H9          1.0511    3.2606   -4.5671 H         1 <0>         0.1330
     40 H10         0.7021    1.5843   -5.1099 H         1 <0>         0.1320
     41 H11        -0.4987    0.8258    0.9781 H         1 <0>         0.4365
     42 H12         1.0708    0.8493   -0.1018 H         1 <0>         0.4485
     43 H13        -2.5452    1.2531    1.0154 H         1 <0>         0.4035
     44 H14        -4.7035    1.4284    1.8982 H         1 <0>         0.1242
     45 H15        -7.0065    1.6178    2.8333 H         1 <0>         0.1344
     46 H16        -9.3832    2.1949    2.6052 H         1 <0>         0.1303
     47 H17       -10.2493    3.0629    0.4736 H         1 <0>         0.1307
     48 H18        -6.5619    3.2219   -2.4113 H         1 <0>         0.4351
     49 H19       -10.4939    4.1451   -2.7419 H         1 <0>         0.1037
     50 H20       -10.4645    4.5399   -0.9897 H         1 <0>         0.0567
     51 H21       -10.8210    2.8632   -1.5268 H         1 <0>         0.0567
@<TRIPOS>BOND
     1    1    2 1
     2    1   31 1
     3    1   32 1
     4    1   33 1
     5    2    7 ar
     6    2    3 ar
     7    3    4 ar
     8    3   34 1
     9    4    5 ar
    10    4   35 1
    11    5    6 ar
    12    5   36 1
    13    6    7 ar
    14    6   37 1
    15    7    8 1
    16    8    9 am
    17    8   38 1
    18    9   10 2
    19    9   11 1
    20   11   12 1
    21   11   39 1
    22   11   40 1
    23   12   13 1
    24   13   17 1
    25   13   14 2
    26   14   15 1
    27   15   16 2
    28   16   17 1
    29   16   19 1
    30   17   18 1
    31   18   41 1
    32   18   42 1
    33   19   20 1
    34   19   43 1
    35   20   21 2
    36   21   22 1
    37   21   44 1
    38   22   27 ar
    39   22   23 ar
    40   23   24 ar
    41   23   45 1
    42   24   25 ar
    43   24   46 1
    44   25   26 ar
    45   25   47 1
    46   26   27 ar
    47   26   29 1
    48   27   28 1
    49   28   48 1
    50   29   30 1
    51   30   49 1
    52   30   50 1
    53   30   51 1
@<TRIPOS>MOLECULE
ZINC39337599
   50    52     0     0     0
SMALL
USER_CHARGES

@<TRIPOS>ATOM
      1 C1         -0.0187    1.5258    0.0104 C.3       1 <0>        -0.1524
      2 C2          0.0021   -0.0041    0.0020 C.3       1 <0>         0.0624
      3 O1         -1.3386   -0.4987    0.0122 O.3       1 <0>        -0.3458
      4 C3         -1.4964   -1.8317    0.0065 C.2       1 <0>         0.4790
      5 O2         -0.5283   -2.5546   -0.0066 O.2       1 <0>        -0.4671
      6 C4         -2.8809   -2.4266    0.0165 C.3       1 <0>         0.0322
      7 H1         -3.5193   -1.8433   -0.6470 H         1 <0>         0.1037
      8 C5         -3.4485   -2.3484    1.4528 C.3       1 <0>         0.2022
      9 H2         -4.3204   -1.6956    1.4938 H         1 <0>         0.1559
     10 S1         -3.9217   -4.1039    1.7551 S.3       1 <0>        -0.0555
     11 N1         -3.8905   -4.6546    0.0437 N.3       1 <0>        -0.3660
     12 N2         -2.8093   -3.8028   -0.4833 N.3       1 <0>        -0.4993
     13 N3         -2.4214   -1.9092    2.4007 N.am      1 <0>        -0.7200
     14 C6         -2.7133   -0.9718    3.3241 C.2       1 <0>         0.7123
     15 O3         -3.8290   -0.4908    3.3704 O.2       1 <0>        -0.5764
     16 N4         -1.7685   -0.5678    4.1961 N.am      1 <0>        -0.7386
     17 C7         -2.0858    0.4511    5.1999 C.3       1 <0>         0.1423
     18 C8         -0.8482    0.7260    6.0564 C.3       1 <0>        -0.0522
     19 C9         -1.1746    1.7741    7.0889 C.2       1 <0>        -0.1788
     20 C10        -1.7906    1.5450    8.3982 C.ar      1 <0>        -0.0597
     21 C11        -2.2395    0.4075    9.0722 C.ar      1 <0>        -0.1118
     22 C12        -2.7874    0.5337   10.3333 C.ar      1 <0>         0.1028
     23 C13        -2.8923    1.7869   10.9307 C.ar      1 <0>        -0.1775
     24 C14        -2.4532    2.9156   10.2749 C.ar      1 <0>        -0.0893
     25 C15        -1.8980    2.8097    9.0044 C.ar      1 <0>         0.0645
     26 N5         -1.3813    3.7302    8.1171 N.pl3     1 <0>        -0.5942
     27 C16        -0.9506    3.0936    6.9854 C.2       1 <0>         0.0732
     28 O4         -3.2267   -0.5705   10.9944 O.3       1 <0>        -0.3185
     29 C17        -3.7827   -0.3694   12.2953 C.3       1 <0>         0.0281
     30 H3          1.0039    1.9031    0.0027 H         1 <0>         0.0824
     31 H4         -0.5459    1.8868   -0.8726 H         1 <0>         0.0672
     32 H5         -0.5289    1.8773    0.9072 H         1 <0>         0.0676
     33 H6          0.5123   -0.3556   -0.8948 H         1 <0>         0.0704
     34 H7          0.5293   -0.3651    0.8851 H         1 <0>         0.0692
     35 H8         -4.7664   -4.4560   -0.4161 H         1 <0>         0.3328
     36 H9         -2.7970   -3.8210   -1.4921 H         1 <0>         0.3715
     37 H10        -1.5314   -2.2930    2.3637 H         1 <0>         0.4067
     38 H11        -0.8784   -0.9516    4.1592 H         1 <0>         0.3982
     39 H12        -2.3933    1.3698    4.7004 H         1 <0>         0.0692
     40 H13        -2.8960    0.0947    5.8359 H         1 <0>         0.0713
     41 H14        -0.5407   -0.1927    6.5559 H         1 <0>         0.0785
     42 H15        -0.0380    1.0824    5.4204 H         1 <0>         0.0768
     43 H16        -2.1590   -0.5651    8.6097 H         1 <0>         0.1300
     44 H17        -3.3224    1.8748   11.9175 H         1 <0>         0.1320
     45 H18        -2.5401    3.8829   10.7474 H         1 <0>         0.1240
     46 H19        -0.4995    3.5808    6.1336 H         1 <0>         0.1716
     47 H20        -1.3274    4.6860    8.2737 H         1 <0>         0.4173
     48 H21        -3.0329    0.0819   12.9451 H         1 <0>         0.0540
     49 H22        -4.6463    0.2916   12.2232 H         1 <0>         0.0542
     50 H23        -4.0929   -1.3285   12.7101 H         1 <0>         0.0995
@<TRIPOS>BOND
     1    1    2 1
     2    1   30 1
     3    1   31 1
     4    1   32 1
     5    2    3 1
     6    2   33 1
     7    2   34 1
     8    3    4 1
     9    4    5 2
    10    4    6 1
    11    6    7 1
    12    6   12 1
    13    6    8 1
    14    8    9 1
    15    8   10 1
    16    8   13 1
    17   10   11 1
    18   11   12 1
    19   11   35 1
    20   12   36 1
    21   13   14 am
    22   13   37 1
    23   14   15 2
    24   14   16 am
    25   16   17 1
    26   16   38 1
    27   17   18 1
    28   17   39 1
    29   17   40 1
    30   18   41 1
    31   18   42 1
    32   18   19 1
    33   19   20 1
    34   19   27 2
    35   20   21 ar
    36   20   25 ar
    37   21   22 ar
    38   21   43 1
    39   22   23 ar
    40   22   28 1
    41   23   24 ar
    42   23   44 1
    43   24   25 ar
    44   24   45 1
    45   25   26 1
    46   26   47 1
    47   26   27 1
    48   27   46 1
    49   28   29 1
    50   29   48 1
    51   29   49 1
    52   29   50 1
@<TRIPOS>MOLECULE
ZINC48524533
   39    40     0     0     0
SMALL
USER_CHARGES

@<TRIPOS>ATOM
      1 C1         -0.8833    0.8314    0.2121 C.3       1 <0>         0.0531
      2 O1         -0.2272   -0.4357    0.2886 O.3       1 <0>        -0.3643
      3 C2          0.1423   -1.0038   -0.8744 C.2       1 <0>         0.6259
      4 O2         -0.0859   -0.4393   -1.9256 O.2       1 <0>        -0.4437
      5 N1          0.7655   -2.1988   -0.8727 N.am      1 <0>        -0.6187
      6 C3          1.1354   -2.7676   -2.0372 C.2       1 <0>         0.5168
      7 S1          0.8138   -1.9720   -3.5187 S.2       1 <0>        -0.4568
      8 N2          1.7586   -3.9626   -2.0355 N.pl3     1 <0>        -0.6152
      9 C4          2.0590   -4.5978   -3.2477 C.ar      1 <0>         0.1287
     10 C5          2.6429   -3.8796   -4.2757 C.ar      1 <0>        -0.0479
     11 C6          2.9408   -4.5091   -5.4762 C.ar      1 <0>         0.0628
     12 C7          2.6504   -5.8729   -5.6480 C.ar      1 <0>         0.0663
     13 C8          2.0606   -6.5913   -4.6038 C.ar      1 <0>         0.0007
     14 C9          1.7726   -5.9573   -3.4117 C.ar      1 <0>         0.1039
     15 N3          1.1861   -6.6783   -2.3621 N.pl3     1 <0>        -0.6161
     16 C10         1.6776   -7.8845   -2.0158 C.2       1 <0>         0.5119
     17 S2          2.9382   -8.5908   -2.9340 S.2       1 <0>        -0.4452
     18 N4          1.1768   -8.5347   -0.9468 N.am      1 <0>        -0.6190
     19 C11         1.6683   -9.7409   -0.6005 C.2       1 <0>         0.6254
     20 O3          2.5627  -10.2421   -1.2521 O.2       1 <0>        -0.4432
     21 O4          1.1681  -10.3903    0.4672 O.3       1 <0>        -0.3650
     22 C12         1.7364  -11.6645    0.7763 C.3       1 <0>         0.0531
     23 N5          3.0464   -6.2072   -6.9039 N.2       1 <0>        -0.4863
     24 C13         3.5476   -5.1637   -7.4973 C.2       1 <0>         0.2737
     25 N6          3.5083   -4.0880   -6.6644 N.pl3     1 <0>        -0.5958
     26 H1          3.8207   -3.1922   -6.8668 H         1 <0>         0.4280
     27 H2         -0.2241    1.5533   -0.2700 H         1 <0>         0.0673
     28 H3         -1.7999    0.7315   -0.3692 H         1 <0>         0.0674
     29 H4         -1.1263    1.1760    1.2173 H         1 <0>         0.1103
     30 H5          0.9477   -2.6496   -0.0334 H         1 <0>         0.4153
     31 H6          1.9991   -4.3830   -1.1951 H         1 <0>         0.4081
     32 H7          2.8661   -2.8311   -4.1445 H         1 <0>         0.1530
     33 H8          1.8343   -7.6400   -4.7280 H         1 <0>         0.1597
     34 H9          0.4265   -6.3090   -1.8850 H         1 <0>         0.4064
     35 H10         0.4626   -8.1345   -0.4265 H         1 <0>         0.4142
     36 H11         1.5971  -12.3391   -0.0684 H         1 <0>         0.0676
     37 H12         2.8015  -11.5483    0.9768 H         1 <0>         0.0671
     38 H13         1.2441  -12.0780    1.6565 H         1 <0>         0.1097
     39 H14         3.9387   -5.1527   -8.5039 H         1 <0>         0.2210
@<TRIPOS>BOND
     1    1    2 1
     2    1   27 1
     3    1   28 1
     4    1   29 1
     5    2    3 1
     6    3    4 2
     7    3    5 am
     8    5    6 1
     9    5   30 1
    10    6    7 2
    11    6    8 1
    12    8    9 1
    13    8   31 1
    14    9   14 ar
    15    9   10 ar
    16   10   11 ar
    17   10   32 1
    18   11   25 1
    19   11   12 ar
    20   12   13 ar
    21   12   23 1
    22   13   14 ar
    23   13   33 1
    24   14   15 1
    25   15   16 1
    26   15   34 1
    27   16   17 2
    28   16   18 1
    29   18   19 am
    30   18   35 1
    31   19   20 2
    32   19   21 1
    33   21   22 1
    34   22   36 1
    35   22   37 1
    36   22   38 1
    37   23   24 2
    38   24   25 1
    39   24   39 1
    40   25   26 1
@<TRIPOS>MOLECULE
ZINC63123127
   51    51     0     0     0
SMALL
USER_CHARGES

@<TRIPOS>ATOM
      1 C1          0.2718    0.4936    0.0322 C.3       1 <0>        -0.1492
      2 C2          0.3301   -0.8331   -0.7277 C.3       1 <0>        -0.0954
      3 C3          1.2693   -1.7969    0.0002 C.3       1 <0>        -0.1473
      4 C4         -1.0715   -1.4425   -0.7980 C.3       1 <0>         0.0876
      5 O1         -1.9199   -0.5973   -1.5776 O.3       1 <0>        -0.3581
      6 C5         -3.1967   -0.9934   -1.7382 C.2       1 <0>         0.6497
      7 O2         -3.5801   -2.0286   -1.2302 O.2       1 <0>        -0.5497
      8 N1         -4.0495   -0.2419   -2.4623 N.am      1 <0>        -0.6499
      9 C6         -5.3484   -0.7001   -2.7106 C.ar      1 <0>         0.1732
     10 C7         -6.0235   -1.4344   -1.7435 C.ar      1 <0>        -0.1282
     11 C8         -7.3056   -1.8870   -1.9878 C.ar      1 <0>        -0.0821
     12 C9         -7.9208   -1.6108   -3.1939 C.ar      1 <0>        -0.1279
     13 C10        -7.2512   -0.8772   -4.1648 C.ar      1 <0>         0.1606
     14 C11        -5.9652   -0.4166   -3.9204 C.ar      1 <0>        -0.1641
     15 N2         -7.8748   -0.5983   -5.3860 N.am      1 <0>        -0.6664
     16 C12        -9.2022   -0.3689   -5.4280 C.2       1 <0>         0.5170
     17 O3         -9.8701   -0.4866   -4.4224 O.2       1 <0>        -0.5118
     18 C13        -9.8567    0.0338   -6.7243 C.3       1 <0>         0.1531
     19 C14        -9.2396    1.3423   -7.2222 C.3       1 <0>        -0.1026
     20 C15        -9.9040    1.7512   -8.5384 C.3       1 <0>        -0.1371
     21 C16        -9.4584    2.4391   -6.1782 C.3       1 <0>        -0.1501
     22 N3        -11.2933    0.2226   -6.5081 N.am      1 <0>        -0.7268
     23 C17       -12.1533    0.0862   -7.5368 C.2       1 <0>         0.7108
     24 O4        -11.7368   -0.1936   -8.6443 O.2       1 <0>        -0.5878
     25 N4        -13.4749    0.2599   -7.3379 N.am      1 <0>        -0.8651
     26 H1          1.2703    0.9278    0.0823 H         1 <0>         0.0596
     27 H2         -0.3974    1.1802   -0.4863 H         1 <0>         0.0609
     28 H3         -0.0991    0.3180    1.0420 H         1 <0>         0.0557
     29 H4          0.7010   -0.6574   -1.7374 H         1 <0>         0.0828
     30 H5          0.8984   -1.9725    1.0100 H         1 <0>         0.0601
     31 H6          1.3109   -2.7420   -0.5412 H         1 <0>         0.0598
     32 H7          2.2679   -1.3627    0.0503 H         1 <0>         0.0675
     33 H8         -1.0164   -2.4280   -1.2604 H         1 <0>         0.0712
     34 H9         -1.4781   -1.5359    0.2091 H         1 <0>         0.0716
     35 H10        -3.7631    0.6166   -2.8114 H         1 <0>         0.4183
     36 H11        -5.5453   -1.6519   -0.7999 H         1 <0>         0.1424
     37 H12        -7.8280   -2.4583   -1.2347 H         1 <0>         0.1328
     38 H13        -8.9233   -1.9661   -3.3819 H         1 <0>         0.1416
     39 H14        -5.4441    0.1578   -4.6720 H         1 <0>         0.1325
     40 H15        -7.3516   -0.5700   -6.2023 H         1 <0>         0.4144
     41 H16        -9.7008   -0.7476   -7.4681 H         1 <0>         0.1200
     42 H17        -8.1707    1.2018   -7.3831 H         1 <0>         0.0829
     43 H18        -9.7482    0.9698   -9.2822 H         1 <0>         0.0673
     44 H19       -10.9729    1.8916   -8.3775 H         1 <0>         0.0577
     45 H20        -9.4644    2.6833   -8.8931 H         1 <0>         0.0519
     46 H21        -8.9850    2.1478   -5.2405 H         1 <0>         0.0529
     47 H22        -9.0187    3.3713   -6.5329 H         1 <0>         0.0623
     48 H23       -10.5272    2.5796   -6.0173 H         1 <0>         0.0588
     49 H24       -11.6255    0.4458   -5.6245 H         1 <0>         0.4066
     50 H25       -13.8072    0.4831   -6.4543 H         1 <0>         0.3985
     51 H26       -14.0938    0.1617   -8.0783 H         1 <0>         0.4174
@<TRIPOS>BOND
     1    1    2 1
     2    1   26 1
     3    1   27 1
     4    1   28 1
     5    2    3 1
     6    2    4 1
     7    2   29 1
     8    3   30 1
     9    3   31 1
    10    3   32 1
    11    4    5 1
    12    4   33 1
    13    4   34 1
    14    5    6 1
    15    6    7 2
    16    6    8 am
    17    8    9 1
    18    8   35 1
    19    9   14 ar
    20    9   10 ar
    21   10   11 ar
    22   10   36 1
    23   11   12 ar
    24   11   37 1
    25   12   13 ar
    26   12   38 1
    27   13   14 ar
    28   13   15 1
    29   14   39 1
    30   15   16 am
    31   15   40 1
    32   16   17 2
    33   16   18 1
    34   18   19 1
    35   18   22 1
    36   18   41 1
    37   19   20 1
    38   19   21 1
    39   19   42 1
    40   20   43 1
    41   20   44 1
    42   20   45 1
    43   21   46 1
    44   21   47 1
    45   21   48 1
    46   22   23 am
    47   22   49 1
    48   23   24 2
    49   23   25 am
    50   25   50 1
    51   25   51 1
@<TRIPOS>MOLECULE
ZINC13529433
   38    38     0     0     0
SMALL
USER_CHARGES
(2S)-2,6-diamino-1-(3,6-dihydro-2H-pyridin-1-yl)hexan-1-one
@<TRIPOS>ATOM
      1 C1          0.2117    3.8495    6.2992 C.3       1 <0>        -0.1170
      2 C2         -0.9262    3.5215    5.3206 C.3       1 <0>         0.1061
      3 N1         -0.3217    2.9168    4.1207 N.am      1 <0>        -0.5859
      4 C3          0.6160    3.7452    3.3491 C.3       1 <0>         0.1332
      5 C4          1.5308    4.4687    4.2974 C.2       1 <0>        -0.2038
      6 C5          1.3446    4.5165    5.5776 C.2       1 <0>        -0.1172
      7 C6         -0.6205    1.6580    3.7429 C.2       1 <0>         0.5023
      8 O1         -1.3977    0.9965    4.3982 O.2       1 <0>        -0.5187
      9 C7          0.0111    1.0724    2.5063 C.3       1 <0>         0.0111
     10 H1          1.0569    1.3753    2.4543 H         1 <0>         0.1654
     11 C8         -0.7288    1.5792    1.2668 C.3       1 <0>        -0.1458
     12 C9         -0.0127    1.0858    0.0080 C.3       1 <0>        -0.1327
     13 C10        -0.7527    1.5927   -1.2315 C.3       1 <0>        -0.1562
     14 C11        -0.0366    1.0992   -2.4903 C.3       1 <0>        -0.0055
     15 H2          0.5701    2.9292    6.7604 H         1 <0>         0.0876
     16 H3         -0.1657    4.5175    7.0734 H         1 <0>         0.1014
     17 H4         -1.4553    4.4343    5.0470 H         1 <0>         0.0911
     18 H5         -1.6190    2.8163    5.7799 H         1 <0>         0.1070
     19 H6          1.2052    3.1093    2.6884 H         1 <0>         0.0864
     20 H7          0.0585    4.4697    2.7554 H         1 <0>         0.0937
     21 H8          2.3911    4.9772    3.8879 H         1 <0>         0.1291
     22 H9          2.0550    5.0766    6.1676 H         1 <0>         0.1201
     23 H10        -0.7436    2.6691    1.2728 H         1 <0>         0.1214
     24 H11        -1.7514    1.2020    1.2746 H         1 <0>         0.1055
     25 H12         0.0021   -0.0041    0.0020 H         1 <0>         0.0751
     26 H13         1.0099    1.4631    0.0003 H         1 <0>         0.0964
     27 H14        -1.7753    1.2154   -1.2238 H         1 <0>         0.0961
     28 H15        -0.7675    2.6825   -1.2255 H         1 <0>         0.0987
     29 H16         0.9860    1.4765   -2.4981 H         1 <0>         0.1350
     30 H17        -0.0218    0.0093   -2.4963 H         1 <0>         0.1355
     31 H18        -0.2932    1.2731   -4.5256 H         1 <0>         0.4469
     32 H19        -1.7155    1.3032   -3.6642 H         1 <0>         0.4399
     33 H20         0.4632   -0.7571    3.3352 H         1 <0>         0.4488
     34 H21        -1.0323   -0.6993    2.6099 H         1 <0>         0.4462
     35 N2         -0.7445    1.6108   -3.6771 N.4       1 <0>        -0.6490
     36 H22        -0.7182    2.6372   -3.6694 H         1 <0>         0.4430
     37 N3         -0.0615   -0.3990    2.5389 N.4       1 <0>        -0.6319
     38 H23         0.3434   -0.7761    1.6739 H         1 <0>         0.4405
@<TRIPOS>BOND
     1    1    6 1
     2    1    2 1
     3    1   15 1
     4    1   16 1
     5    2    3 1
     6    2   17 1
     7    2   18 1
     8    3    4 1
     9    3    7 am
    10    4    5 1
    11    4   19 1
    12    4   20 1
    13    5    6 2
    14    5   21 1
    15    6   22 1
    16    7    8 2
    17    7    9 1
    18    9   10 1
    19    9   11 1
    20    9   37 1
    21   11   12 1
    22   11   23 1
    23   11   24 1
    24   12   13 1
    25   12   25 1
    26   12   26 1
    27   13   14 1
    28   13   27 1
    29   13   28 1
    30   14   29 1
    31   14   30 1
    32   14   35 1
    33   31   35 1
    34   32   35 1
    35   33   37 1
    36   34   37 1
    37   35   36 1
    38   37   38 1
@<TRIPOS>MOLECULE
ZINC19688199
   36    36     0     0     0
SMALL
USER_CHARGES

@<TRIPOS>ATOM
      1 C1         -0.0178    1.4646    0.0101 C.3       1 <0>        -0.0004
      2 C2          1.4177    1.9945   -0.0008 C.3       1 <0>         0.0239
      3 N1          2.1091    1.5033   -1.2012 N.3       1 <0>        -0.5224
      4 C3          2.1152    0.0340   -1.2356 C.3       1 <0>         0.0175
      5 C4          0.6738   -0.4797   -1.2145 C.3       1 <0>        -0.0040
      6 N2          0.0021   -0.0041    0.0020 N.4       1 <0>        -0.3880
      7 C5         -1.3759   -0.5123    0.0307 C.3       1 <0>        -0.0044
      8 C6         -1.3545   -2.0377    0.1480 C.3       1 <0>        -0.1875
      9 C7         -2.7897   -2.5671    0.1779 C.3       1 <0>        -0.0018
     10 N3         -2.7692   -4.0316    0.2906 N.4       1 <0>        -0.6381
     11 C8          3.4755    2.0374   -1.2772 C.3       1 <0>         0.0314
     12 C9          4.0651    1.7182   -2.6269 C.2       1 <0>         0.5181
     13 O1          3.4114    1.1061   -3.4448 O.2       1 <0>        -0.5339
     14 N4          5.3188    2.1129   -2.9250 N.am      1 <0>        -0.8466
     15 H1         -0.5281    1.8161    0.9069 H         1 <0>         0.1415
     16 H2         -0.5451    1.8257   -0.8730 H         1 <0>         0.1434
     17 H3          1.4031    3.0843   -0.0098 H         1 <0>         0.1312
     18 H4          1.9412    1.6448    0.8891 H         1 <0>         0.0651
     19 H5          2.6093   -0.3064   -2.1455 H         1 <0>         0.1431
     20 H6          2.6501   -0.3479   -0.3661 H         1 <0>         0.0585
     21 H7          0.1431   -0.1087   -2.0913 H         1 <0>         0.1444
     22 H8          0.6764   -1.5696   -1.2257 H         1 <0>         0.1314
     23 H9         -1.9014   -0.0894    0.8869 H         1 <0>         0.1429
     24 H10        -1.8881   -0.2257   -0.8878 H         1 <0>         0.1430
     25 H11        -0.8290   -2.4606   -0.7081 H         1 <0>         0.1119
     26 H12        -0.8423   -2.3243    1.0665 H         1 <0>         0.1115
     27 H13        -3.3152   -2.1441    1.0341 H         1 <0>         0.1455
     28 H14        -3.3019   -2.2805   -0.7406 H         1 <0>         0.1458
     29 H15        -2.2951   -4.2969    1.1408 H         1 <0>         0.4398
     30 H16        -3.7156   -4.3807    0.3103 H         1 <0>         0.4507
     31 H17         3.4515    3.1181   -1.1376 H         1 <0>         0.1231
     32 H18         4.0868    1.5837   -0.4972 H         1 <0>         0.0807
     33 H19         5.8416    2.6024   -2.2708 H         1 <0>         0.4072
     34 H20         5.6983    1.9075   -3.7937 H         1 <0>         0.4134
     35 H21        -2.2827   -4.4231   -0.5020 H         1 <0>         0.4401
     36 H22         0.5002   -0.3379    0.8135 H         1 <0>         0.4222
@<TRIPOS>BOND
     1    1    6 1
     2    1    2 1
     3    1   15 1
     4    1   16 1
     5    2    3 1
     6    2   17 1
     7    2   18 1
     8    3    4 1
     9    3   11 1
    10    4    5 1
    11    4   19 1
    12    4   20 1
    13    5    6 1
    14    5   21 1
    15    5   22 1
    16    6    7 1
    17    6   36 1
    18    7    8 1
    19    7   23 1
    20    7   24 1
    21    8    9 1
    22    8   25 1
    23    8   26 1
    24    9   10 1
    25    9   27 1
    26    9   28 1
    27   10   29 1
    28   10   30 1
    29   10   35 1
    30   11   12 1
    31   11   31 1
    32   11   32 1
    33   12   13 2
    34   12   14 am
    35   14   33 1
    36   14   34 1
@<TRIPOS>MOLECULE
ZINC39115395
   27    28     0     0     0
SMALL
USER_CHARGES

@<TRIPOS>ATOM
      1 C1         -0.0162    1.3469    0.0094 C.ar      1 <0>         0.0045
      2 C2          1.1688    2.1007    0.0022 C.ar      1 <0>         0.1507
      3 C3          2.3977    1.5330   -0.0130 C.ar      1 <0>        -0.2008
      4 C4          2.5361    0.1269   -0.0219 C.ar      1 <0>         0.3724
      5 N1          3.7388   -0.4222   -0.0363 N.am      1 <0>        -0.5216
      6 C5          3.9034   -1.7467   -0.0451 C.2       1 <0>         0.5008
      7 O1          5.0186   -2.2284   -0.0579 O.2       1 <0>        -0.3026
      8 C6          2.6835   -2.6396   -0.0383 C.3       1 <0>         0.0493
      9 H1          2.7498   -3.2863    0.8366 H         1 <0>         0.2251
     10 N2          1.3599   -1.9973   -0.0222 N.pl3     1 <0>        -0.4319
     11 C7          1.3010   -0.6969   -0.0141 C.ar      1 <0>         0.3592
     12 C8          0.0021   -0.0041    0.0020 C.ar      1 <0>        -0.1284
     13 C9          2.7525   -3.5331   -1.2784 C.3       1 <0>        -0.0083
     14 N3          1.5246   -4.3339   -1.3739 N.3       1 <0>        -0.5175
     15 N4          1.5551   -5.1971   -2.5435 N.4       1 <0>        -0.4785
     16 H2         -0.9663    1.8603    0.0259 H         1 <0>         0.2182
     17 H3          1.0967    3.1783    0.0086 H         1 <0>         0.2179
     18 H4          3.2779    2.1589   -0.0188 H         1 <0>         0.2200
     19 H5         -0.9202   -0.5660    0.0082 H         1 <0>         0.2210
     20 H6          2.8514   -2.9121   -2.1687 H         1 <0>         0.1484
     21 H7          3.6138   -4.1966   -1.2007 H         1 <0>         0.1528
     22 H8          1.3764   -4.8703   -0.5323 H         1 <0>         0.4156
     23 H9          1.6390   -4.6330   -3.3758 H         1 <0>         0.4616
     24 H10         2.3448   -5.8220   -2.4797 H         1 <0>         0.4369
     25 H11         0.5497   -2.5306   -0.0174 H         1 <0>         0.4848
     26 H12         4.5208    0.1517   -0.0410 H         1 <0>         0.4796
     27 H13         0.7028   -5.7355   -2.5865 H         1 <0>         0.4709
@<TRIPOS>BOND
     1    1   12 ar
     2    1    2 ar
     3    1   16 1
     4    2    3 ar
     5    2   17 1
     6    3    4 ar
     7    3   18 1
     8    4   11 ar
     9    4    5 2
    10    5    6 am
    11    5   26 1
    12    6    7 2
    13    6    8 1
    14    8    9 1
    15    8   10 1
    16    8   13 1
    17   10   11 2
    18   10   25 1
    19   11   12 ar
    20   12   19 1
    21   13   14 1
    22   13   20 1
    23   13   21 1
    24   14   15 1
    25   14   22 1
    26   15   23 1
    27   15   24 1
    28   15   27 1
@<TRIPOS>MOLECULE
ZINC49753798
   33    33     0     0     0
SMALL
USER_CHARGES

@<TRIPOS>ATOM
      1 C1         -0.1920    1.6932    0.0409 C.3       1 <0>        -0.0108
      2 C2          0.0154    0.1776    0.0114 C.3       1 <0>         0.0472
      3 O1          0.7511   -0.2251    1.1684 O.3       1 <0>        -0.5785
      4 N1          1.1108    2.3673   -0.0374 N.4       1 <0>        -0.3779
      5 C3          1.7191    2.1064   -1.3489 C.3       1 <0>        -0.0100
      6 C4          3.1367    2.6813   -1.3770 C.3       1 <0>         0.0450
      7 O2          3.9448    2.0037   -0.4127 O.3       1 <0>        -0.5760
      8 C5          0.9248    3.8140    0.1369 C.3       1 <0>         0.0700
      9 C6          0.4156    4.0910    1.5280 C.ar      1 <0>         0.3828
     10 N2         -0.8850    4.1134    1.7613 N.ar      1 <0>        -0.6274
     11 C7         -1.3386    4.3572    2.9888 C.ar      1 <0>         0.6430
     12 N3         -0.4819    4.5782    3.9799 N.ar      1 <0>        -0.6357
     13 C8          0.8248    4.5548    3.7414 C.ar      1 <0>         0.6444
     14 N4          1.2709    4.3053    2.5123 N.ar      1 <0>        -0.6199
     15 N5          1.7187    4.7837    4.7675 N.pl3     1 <0>        -0.7905
     16 N6         -2.6968    4.3809    3.2314 N.pl3     1 <0>        -0.7920
     17 H1         -0.8075    1.9922   -0.8076 H         1 <0>         0.1482
     18 H2         -0.6911    1.9736    0.9684 H         1 <0>         0.1382
     19 H3         -0.9535   -0.3217    0.0051 H         1 <0>         0.0949
     20 H4          0.5709   -0.0958   -0.8857 H         1 <0>         0.0726
     21 H5          0.9198   -1.1761    1.2160 H         1 <0>         0.4079
     22 H6          1.7596    1.0312   -1.5231 H         1 <0>         0.1415
     23 H7          1.1201    2.5784   -2.1276 H         1 <0>         0.1476
     24 H8          3.5646    2.5445   -2.3701 H         1 <0>         0.0973
     25 H9          3.1023    3.7446   -1.1394 H         1 <0>         0.0729
     26 H10         4.8361    2.3673   -0.3212 H         1 <0>         0.4082
     27 H11         1.8775    4.3231   -0.0093 H         1 <0>         0.1568
     28 H12         0.2024    4.1781   -0.5936 H         1 <0>         0.1585
     29 H13         1.3930    4.9619    5.6637 H         1 <0>         0.4260
     30 H14         2.6726    4.7665    4.5927 H         1 <0>         0.4245
     31 H15        -3.3217    4.2198    2.5072 H         1 <0>         0.4237
     32 H16        -3.0267    4.5587    4.1261 H         1 <0>         0.4260
     33 H17         1.7156    2.0159    0.6898 H         1 <0>         0.4416
@<TRIPOS>BOND
     1    1    2 1
     2    1    4 1
     3    1   17 1
     4    1   18 1
     5    2    3 1
     6    2   19 1
     7    2   20 1
     8    3   21 1
     9    4    5 1
    10    4    8 1
    11    4   33 1
    12    5    6 1
    13    5   22 1
    14    5   23 1
    15    6    7 1
    16    6   24 1
    17    6   25 1
    18    7   26 1
    19    8    9 1
    20    8   27 1
    21    8   28 1
    22    9   14 ar
    23    9   10 ar
    24   10   11 ar
    25   11   12 ar
    26   11   16 1
    27   12   13 ar
    28   13   14 ar
    29   13   15 1
    30   15   29 1
    31   15   30 1
    32   16   31 1
    33   16   32 1
@<TRIPOS>MOLECULE
ZINC44762752
   35    35     0     0     0
SMALL
USER_CHARGES

@<TRIPOS>ATOM
      1 C1          2.9244    0.6522    1.6875 C.3       1 <0>        -0.1664
      2 C2          2.1426    1.2303    0.5062 C.3       1 <0>         0.1212
      3 H1          1.0876    0.9765    0.6096 H         1 <0>         0.1205
      4 C3          2.2990    2.7290    0.4855 C.2       1 <0>         0.5158
      5 O1          2.7938    3.2738   -0.4784 O.2       1 <0>        -0.5441
      6 N1          1.8889    3.4639    1.5383 N.am      1 <0>        -0.8405
      7 N2          2.6599    0.6680   -0.7438 N.am      1 <0>        -0.7111
      8 C4          2.2026   -0.5191   -1.1888 C.2       1 <0>         0.5048
      9 O2          1.4314   -1.1646   -0.5110 O.2       1 <0>        -0.5045
     10 C5          2.6496   -1.0444   -2.5287 C.3       1 <0>        -0.1133
     11 C6          2.0139   -2.4291   -2.8076 C.3       1 <0>        -0.1218
     12 C7          2.9245   -3.3911   -2.0049 C.3       1 <0>        -0.1226
     13 C8          4.3423   -2.8116   -2.1886 C.3       1 <0>        -0.1296
     14 C9          4.1675   -1.3195   -2.5217 C.3       1 <0>        -0.1075
     15 C10         2.2901   -0.0538   -3.6379 C.3       1 <0>         0.0033
     16 N3          0.8304    0.0973   -3.7052 N.4       1 <0>        -0.6384
     17 H2          2.8113   -0.4318    1.7025 H         1 <0>         0.0801
     18 H3          3.9794    0.9060    1.5841 H         1 <0>         0.0695
     19 H4          2.5395    1.0705    2.6176 H         1 <0>         0.0797
     20 H5          1.4932    3.0282    2.3092 H         1 <0>         0.4085
     21 H6          1.9896    4.4286    1.5250 H         1 <0>         0.4131
     22 H7          3.3315    1.1502   -1.2511 H         1 <0>         0.4131
     23 H8          0.9900   -2.4660   -2.4357 H         1 <0>         0.0877
     24 H9          2.0482   -2.6626   -3.8717 H         1 <0>         0.0893
     25 H10         2.6456   -3.3902   -0.9512 H         1 <0>         0.0793
     26 H11         2.8686   -4.3998   -2.4143 H         1 <0>         0.0808
     27 H12         4.9139   -2.9241   -1.2674 H         1 <0>         0.0754
     28 H13         4.8502   -3.3201   -3.0081 H         1 <0>         0.0784
     29 H14         4.5906   -1.1039   -3.5028 H         1 <0>         0.0909
     30 H15         4.6543   -0.7079   -1.7620 H         1 <0>         0.0816
     31 H16         2.7459    0.9128   -3.4235 H         1 <0>         0.1410
     32 H17         2.6611   -0.4268   -4.5925 H         1 <0>         0.1530
     33 H18         0.4132   -0.7819   -3.9714 H         1 <0>         0.4379
     34 H19         0.4791    0.3763   -2.8014 H         1 <0>         0.4321
     35 H20         0.5964    0.8014   -4.3890 H         1 <0>         0.4427
@<TRIPOS>BOND
     1    1    2 1
     2    1   17 1
     3    1   18 1
     4    1   19 1
     5    2    3 1
     6    2    4 1
     7    2    7 1
     8    4    5 2
     9    4    6 am
    10    6   20 1
    11    6   21 1
    12    7    8 am
    13    7   22 1
    14    8    9 2
    15    8   10 1
    16   10   14 1
    17   10   11 1
    18   10   15 1
    19   11   12 1
    20   11   23 1
    21   11   24 1
    22   12   13 1
    23   12   25 1
    24   12   26 1
    25   13   14 1
    26   13   27 1
    27   13   28 1
    28   14   29 1
    29   14   30 1
    30   15   16 1
    31   15   31 1
    32   15   32 1
    33   16   33 1
    34   16   34 1
    35   16   35 1
@<TRIPOS>MOLECULE
ZINC00947606
   44    46     0     0     0
SMALL
USER_CHARGES
3-chloro-4-(2,3-dimethylphenyl)amino-1-(4-ethylphenyl)-pyrrole-2,5-dione
@<TRIPOS>ATOM
      1 C1          8.4814   10.3536    1.5942 C.3       1 <0>        -0.1483
      2 C2          8.0846   10.0314    0.1521 C.3       1 <0>        -0.0866
      3 C3          7.1361    8.8604    0.1417 C.ar      1 <0>        -0.0841
      4 C4          5.7727    9.0760    0.2247 C.ar      1 <0>        -0.0959
      5 C5          4.9009    8.0048    0.2150 C.ar      1 <0>        -0.1312
      6 C6          5.3946    6.7105    0.1218 C.ar      1 <0>         0.1181
      7 C7          6.7643    6.4970    0.0439 C.ar      1 <0>        -0.1322
      8 C8          7.6309    7.5725    0.0488 C.ar      1 <0>        -0.0961
      9 N1          4.5126    5.6216    0.1122 N.am      1 <0>        -0.5175
     10 C9          4.8802    4.3300    0.0323 C.2       1 <0>         0.5496
     11 O1          6.0189    3.9167   -0.0424 O.2       1 <0>        -0.4159
     12 C10         3.6493    3.4974    0.0474 C.2       1 <0>         0.1542
     13 C11         2.6044    4.3600    0.1472 C.2       1 <0>        -0.1331
     14 C12         3.1735    5.7118    0.1874 C.2       1 <0>         0.5713
     15 O2          2.5380    6.7443    0.2739 O.2       1 <0>        -0.4256
     16 Cl1         0.9206    3.9432    0.2143 Cl        1 <0>         0.0286
     17 N2          3.5815    2.1211   -0.0204 N.pl3     1 <0>        -0.6454
     18 C13         4.1366    1.4480   -1.1096 C.ar      1 <0>         0.1865
     19 C14         4.6493    2.1652   -2.1843 C.ar      1 <0>        -0.1641
     20 C15         5.1978    1.4958   -3.2600 C.ar      1 <0>        -0.0777
     21 C16         5.2379    0.1132   -3.2690 C.ar      1 <0>        -0.1465
     22 C17         4.7288   -0.6036   -2.2017 C.ar      1 <0>        -0.0473
     23 C18         4.1783    0.0591   -1.1224 C.ar      1 <0>        -0.1302
     24 C19         3.6229   -0.7231    0.0399 C.3       1 <0>        -0.1157
     25 C20         4.7744   -2.1099   -2.2166 C.3       1 <0>        -0.1201
     26 H1          7.5898   10.6031    2.1693 H         1 <0>         0.0564
     27 H2          8.9698    9.4865    2.0390 H         1 <0>         0.0561
     28 H3          9.1675   11.2005    1.6017 H         1 <0>         0.0600
     29 H4          8.9763    9.7818   -0.4230 H         1 <0>         0.0742
     30 H5          7.5963   10.8985   -0.2927 H         1 <0>         0.0745
     31 H6          5.3893   10.0830    0.2976 H         1 <0>         0.1327
     32 H7          3.8362    8.1738    0.2802 H         1 <0>         0.1543
     33 H8          7.1515    5.4911   -0.0242 H         1 <0>         0.1520
     34 H9          8.6962    7.4072   -0.0155 H         1 <0>         0.1321
     35 H10         3.1479    1.6214    0.6889 H         1 <0>         0.4237
     36 H11         4.6186    3.2447   -2.1777 H         1 <0>         0.1116
     37 H12         5.6000    2.0525   -4.0935 H         1 <0>         0.1267
     38 H13         5.6675   -0.4077   -4.1119 H         1 <0>         0.1251
     39 H14         4.4098   -0.8886    0.7756 H         1 <0>         0.0732
     40 H15         2.8083   -0.1627    0.4988 H         1 <0>         0.0584
     41 H16         3.2487   -1.6836   -0.3143 H         1 <0>         0.0786
     42 H17         5.7066   -2.4496   -1.7651 H         1 <0>         0.0744
     43 H18         3.9312   -2.5045   -1.6497 H         1 <0>         0.0720
     44 H19         4.7186   -2.4649   -3.2456 H         1 <0>         0.0692
@<TRIPOS>BOND
     1    1    2 1
     2    1   26 1
     3    1   27 1
     4    1   28 1
     5    2    3 1
     6    2   29 1
     7    2   30 1
     8    3    8 ar
     9    3    4 ar
    10    4    5 ar
    11    4   31 1
    12    5    6 ar
    13    5   32 1
    14    6    7 ar
    15    6    9 1
    16    7    8 ar
    17    7   33 1
    18    8   34 1
    19    9   14 am
    20    9   10 am
    21   10   11 2
    22   10   12 1
    23   12   13 2
    24   12   17 1
    25   13   14 1
    26   13   16 1
    27   14   15 2
    28   17   18 1
    29   17   35 1
    30   18   23 ar
    31   18   19 ar
    32   19   20 ar
    33   19   36 1
    34   20   21 ar
    35   20   37 1
    36   21   22 ar
    37   21   38 1
    38   22   23 ar
    39   22   25 1
    40   23   24 1
    41   24   39 1
    42   24   40 1
    43   24   41 1
    44   25   42 1
    45   25   43 1
    46   25   44 1
@<TRIPOS>MOLECULE
ZINC12367887
   44    47     0     0     0
SMALL
USER_CHARGES
N-[(4-methoxyphenyl)methyleneamino]-4,5-dihydrobenzo[g]benzothiophene-2-carboxamide
@<TRIPOS>ATOM
      1 C1         -8.9594    3.6662   -0.1991 C.3       1 <0>         0.0238
      2 O1         -7.5954    3.2914    0.0036 O.3       1 <0>        -0.3131
      3 C2         -6.6753    4.2909    0.0080 C.ar      1 <0>         0.1470
      4 C3         -5.3320    3.9945    0.1999 C.ar      1 <0>        -0.1446
      5 C4         -4.3952    5.0051    0.2060 C.ar      1 <0>        -0.0941
      6 C5         -4.7986    6.3299    0.0183 C.ar      1 <0>        -0.1480
      7 C6         -6.1518    6.6238   -0.1696 C.ar      1 <0>        -0.0408
      8 C7         -7.0809    5.6061   -0.1790 C.ar      1 <0>        -0.2064
      9 C8         -3.8004    7.4146    0.0245 C.2       1 <0>         0.1249
     10 N1         -2.5358    7.1334   -0.0592 N.2       1 <0>        -0.2276
     11 N2         -2.1251    5.9065   -0.5967 N.am      1 <0>        -0.5839
     12 C9         -0.8223    5.5622   -0.5716 C.2       1 <0>         0.6195
     13 O2         -0.0023    6.3174   -0.0819 O.2       1 <0>        -0.4861
     14 C10        -0.3929    4.2797   -1.1334 C.2       1 <0>        -0.2416
     15 C11         0.8850    3.7436   -1.2055 C.2       1 <0>        -0.0486
     16 C12         1.0721    2.5115   -1.7818 C.2       1 <0>        -0.1319
     17 C13        -0.0757    1.8700   -2.2564 C.2       1 <0>        -0.0943
     18 S1         -1.3814    3.0018   -1.9000 S.3       1 <0>         0.1337
     19 C14        -0.0670    0.5523   -2.8838 C.ar      1 <0>        -0.0216
     20 C15        -1.1445    0.0385   -3.5930 C.ar      1 <0>        -0.0936
     21 C16        -1.0464   -1.2079   -4.1800 C.ar      1 <0>        -0.1198
     22 C17         0.1201   -1.9418   -4.0533 C.ar      1 <0>        -0.1021
     23 C18         1.1872   -1.4463   -3.3257 C.ar      1 <0>        -0.1166
     24 C19         1.1011   -0.2110   -2.7195 C.ar      1 <0>        -0.0540
     25 C20         2.2190    0.2974   -1.8542 C.3       1 <0>        -0.0836
     26 C21         2.4125    1.8062   -1.9488 C.3       1 <0>        -0.0542
     27 H1         -9.5876    2.7756   -0.1801 H         1 <0>         0.1043
     28 H2         -9.2706    4.3473    0.5930 H         1 <0>         0.0592
     29 H3         -9.0605    4.1615   -1.1647 H         1 <0>         0.0591
     30 H4         -5.0212    2.9704    0.3449 H         1 <0>         0.1384
     31 H5         -3.3510    4.7738    0.3560 H         1 <0>         0.1382
     32 H6         -6.4686    7.6466   -0.3106 H         1 <0>         0.1385
     33 H7         -8.1265    5.8319   -0.3279 H         1 <0>         0.1366
     34 H8         -4.1211    8.4432    0.0987 H         1 <0>         0.1909
     35 H9         -2.7783    5.3049   -0.9869 H         1 <0>         0.3933
     36 H10         1.7273    4.2925   -0.8111 H         1 <0>         0.1490
     37 H11        -2.0557    0.6109   -3.6850 H         1 <0>         0.1255
     38 H12        -1.8794   -1.6095   -4.7378 H         1 <0>         0.1301
     39 H13         0.1981   -2.9093   -4.5269 H         1 <0>         0.1280
     40 H14         2.0911   -2.0299   -3.2314 H         1 <0>         0.1295
     41 H15         2.0062    0.0360   -0.8176 H         1 <0>         0.0825
     42 H16         3.1452   -0.1922   -2.1551 H         1 <0>         0.0854
     43 H17         3.0944    2.1338   -1.1640 H         1 <0>         0.0871
     44 H18         2.8336    2.0570   -2.9224 H         1 <0>         0.0821
@<TRIPOS>BOND
     1    1    2 1
     2    1   27 1
     3    1   28 1
     4    1   29 1
     5    2    3 1
     6    3    8 ar
     7    3    4 ar
     8    4    5 ar
     9    4   30 1
    10    5    6 ar
    11    5   31 1
    12    6    7 ar
    13    6    9 1
    14    7    8 ar
    15    7   32 1
    16    8   33 1
    17    9   10 2
    18    9   34 1
    19   10   11 1
    20   11   12 am
    21   11   35 1
    22   12   13 2
    23   12   14 1
    24   14   18 1
    25   14   15 2
    26   15   16 1
    27   15   36 1
    28   16   26 1
    29   16   17 2
    30   17   18 1
    31   17   19 1
    32   19   24 ar
    33   19   20 ar
    34   20   21 ar
    35   20   37 1
    36   21   22 ar
    37   21   38 1
    38   22   23 ar
    39   22   39 1
    40   23   24 ar
    41   23   40 1
    42   24   25 1
    43   25   26 1
    44   25   41 1
    45   25   42 1
    46   26   43 1
    47   26   44 1
@<TRIPOS>MOLECULE
ZINC27974665
   38    40     0     0     0
SMALL
USER_CHARGES
(2R)-N-(3,5-dichloro-2-pyridyl)-2-(2-naphthyloxy)propanamide
@<TRIPOS>ATOM
      1 C1         -3.9941    2.9871   -1.1153 C.3       1 <0>        -0.1799
      2 C2         -3.7068    2.0228    0.0374 C.3       1 <0>         0.0697
      3 H1         -3.6577    2.5467    1.0034 H         1 <0>         0.1052
      4 C3         -2.4172    1.2904   -0.2299 C.2       1 <0>         0.5122
      5 O1         -2.4267    0.0907   -0.4073 O.2       1 <0>        -0.4387
      6 N1         -1.2533    1.9687   -0.2718 N.am      1 <0>        -0.6683
      7 C4         -0.0595    1.2907   -0.5192 C.ar      1 <0>         0.3891
      8 C5          1.1378    1.9982   -0.5667 C.ar      1 <0>        -0.1198
      9 C6          2.3146    1.3137   -0.8183 C.ar      1 <0>        -0.0256
     10 C7          2.2526   -0.0602   -1.0150 C.ar      1 <0>        -0.1143
     11 C8          1.0281   -0.6974   -0.9541 C.ar      1 <0>         0.1592
     12 N2         -0.0769   -0.0181   -0.7119 N.ar      1 <0>        -0.4499
     13 Cl1         3.6983   -0.9666   -1.3346 Cl        1 <0>        -0.0387
     14 Cl2         1.1556    3.7156   -0.3138 Cl        1 <0>        -0.0391
     15 O2         -4.7756    1.0807    0.1478 O.3       1 <0>        -0.2884
     16 C9         -5.8624    1.4623    0.8687 C.ar      1 <0>         0.1295
     17 C10        -5.9388    2.7684    1.3629 C.ar      1 <0>        -0.1957
     18 C11        -7.0134    3.1799    2.0875 C.ar      1 <0>        -0.0617
     19 C12        -8.0648    2.2830    2.3460 C.ar      1 <0>        -0.0834
     20 C13        -9.1902    2.6750    3.0907 C.ar      1 <0>        -0.0951
     21 C14       -10.1901    1.7810    3.3217 C.ar      1 <0>        -0.1266
     22 C15       -10.1162    0.4788    2.8304 C.ar      1 <0>        -0.1040
     23 C16        -9.0421    0.0635    2.1053 C.ar      1 <0>        -0.1144
     24 C17        -7.9896    0.9588    1.8462 C.ar      1 <0>        -0.0129
     25 C18        -6.8683    0.5671    1.0965 C.ar      1 <0>        -0.1461
     26 H2         -4.9354    3.5217   -0.9201 H         1 <0>         0.0833
     27 H3         -4.0820    2.4205   -2.0541 H         1 <0>         0.0811
     28 H4         -3.1714    3.7123   -1.2004 H         1 <0>         0.0802
     29 H5         -1.2448    3.0568   -0.1109 H         1 <0>         0.4452
     30 H6          3.2590    1.8359   -0.8611 H         1 <0>         0.1613
     31 H7          0.9748   -1.7653   -1.1063 H         1 <0>         0.1784
     32 H8         -5.1331    3.4601    1.1660 H         1 <0>         0.1324
     33 H9         -7.0592    4.1916    2.4626 H         1 <0>         0.1334
     34 H10        -9.2615    3.6809    3.4774 H         1 <0>         0.1273
     35 H11       -11.0539    2.0853    3.8941 H         1 <0>         0.1239
     36 H12       -10.9236   -0.2108    3.0278 H         1 <0>         0.1248
     37 H13        -8.9982   -0.9486    1.7312 H         1 <0>         0.1293
     38 H14        -6.8000   -0.4375    0.7060 H         1 <0>         0.1372
@<TRIPOS>BOND
     1    1    2 1
     2    1   26 1
     3    1   27 1
     4    1   28 1
     5    2    3 1
     6    2    4 1
     7    2   15 1
     8    4    5 2
     9    4    6 am
    10    6    7 1
    11    6   29 1
    12    7   12 ar
    13    7    8 ar
    14    8    9 ar
    15    8   14 1
    16    9   10 ar
    17    9   30 1
    18   10   11 ar
    19   10   13 1
    20   11   12 ar
    21   11   31 1
    22   15   16 1
    23   16   25 ar
    24   16   17 ar
    25   17   18 ar
    26   17   32 1
    27   18   19 ar
    28   18   33 1
    29   19   24 ar
    30   19   20 ar
    31   20   21 ar
    32   20   34 1
    33   21   22 ar
    34   21   35 1
    35   22   23 ar
    36   22   36 1
    37   23   24 ar
    38   23   37 1
    39   24   25 ar
    40   25   38 1
@<TRIPOS>MOLECULE
ZINC37299597
   32    33     0     0     0
SMALL
USER_CHARGES

@<TRIPOS>ATOM
      1 C1         -0.0187    1.5258    0.0104 C.3       1 <0>        -0.1675
      2 C2          0.0021   -0.0041    0.0020 C.3       1 <0>         0.1822
      3 H1          0.5293   -0.3651    0.8851 H         1 <0>         0.0970
      4 C3         -1.4117   -0.5257    0.0127 C.ar      1 <0>        -0.0781
      5 C4         -2.1413   -0.5688   -1.1607 C.ar      1 <0>        -0.1095
      6 C5         -3.4381   -1.0472   -1.1512 C.ar      1 <0>        -0.0792
      7 C6         -4.0056   -1.4827    0.0323 C.ar      1 <0>        -0.0970
      8 C7         -3.2755   -1.4395    1.2060 C.ar      1 <0>        -0.0790
      9 C8         -1.9769   -0.9663    1.1949 C.ar      1 <0>        -0.1018
     10 I1         -5.9713   -2.2072    0.0473 I         1 <0>        -0.0350
     11 N1          0.6878   -0.4765   -1.2033 N.pl3     1 <0>        -0.7237
     12 C9          2.0798   -0.5910   -1.2154 C.ar      1 <0>         0.2684
     13 C10         2.8151   -0.2627   -0.0834 C.ar      1 <0>        -0.2006
     14 C11         4.1912   -0.3775   -0.0986 C.ar      1 <0>        -0.0024
     15 C12         4.8373   -0.8186   -1.2389 C.ar      1 <0>        -0.1118
     16 C13         4.1084   -1.1463   -2.3675 C.ar      1 <0>        -0.0030
     17 C14         2.7316   -1.0388   -2.3574 C.ar      1 <0>        -0.1954
     18 N2          6.3123   -0.9400   -1.2517 N.pl3     1 <0>         0.0441
     19 O1          6.9510   -0.6535   -0.2659 O.2       1 <0>        -0.1727
     20 O2          6.8786   -1.3255   -2.2479 O.3       1 <0>        -0.1726
     21 H2          1.0039    1.9031    0.0027 H         1 <0>         0.0683
     22 H3         -0.5459    1.8868   -0.8726 H         1 <0>         0.0650
     23 H4         -0.5289    1.8773    0.9072 H         1 <0>         0.0736
     24 H5         -1.6982   -0.2283   -2.0848 H         1 <0>         0.1289
     25 H6         -4.0082   -1.0805   -2.0679 H         1 <0>         0.1329
     26 H7         -3.7185   -1.7796    2.1304 H         1 <0>         0.1340
     27 H8         -1.4050   -0.9369    2.1106 H         1 <0>         0.1351
     28 H9          0.1751   -0.7099   -1.9930 H         1 <0>         0.4066
     29 H10         2.3111    0.0822    0.8073 H         1 <0>         0.1446
     30 H11         4.7635   -0.1221    0.7810 H         1 <0>         0.1522
     31 H12         4.6161   -1.4901   -3.2565 H         1 <0>         0.1525
     32 H13         2.1626   -1.2988   -3.2378 H         1 <0>         0.1437
@<TRIPOS>BOND
     1    1    2 1
     2    1   21 1
     3    1   22 1
     4    1   23 1
     5    2    3 1
     6    2    4 1
     7    2   11 1
     8    4    9 ar
     9    4    5 ar
    10    5    6 ar
    11    5   24 1
    12    6    7 ar
    13    6   25 1
    14    7    8 ar
    15    7   10 1
    16    8    9 ar
    17    8   26 1
    18    9   27 1
    19   11   12 1
    20   11   28 1
    21   12   17 ar
    22   12   13 ar
    23   13   14 ar
    24   13   29 1
    25   14   15 ar
    26   14   30 1
    27   15   16 ar
    28   15   18 1
    29   16   17 ar
    30   16   31 1
    31   17   32 1
    32   18   19 2
    33   18   20 1
@<TRIPOS>MOLECULE
ZINC08914851
   47    50     0     0     0
SMALL
USER_CHARGES

@<TRIPOS>ATOM
      1 C1          0.1847    1.9482    0.2289 C.3       1 <0>        -0.1496
      2 C2          0.2265    0.4358    0.0014 C.3       1 <0>        -0.0481
      3 C3          0.8823   -0.2318    1.1826 C.2       1 <0>        -0.2711
      4 C4          0.1248   -0.7348    2.1842 C.2       1 <0>         0.2121
      5 N1          0.7216   -1.3382    3.2503 N.pl3     1 <0>        -0.5966
      6 C5          2.0949   -1.4371    3.3102 C.2       1 <0>         0.3198
      7 C6          2.9527   -1.9847    4.2492 C.2       1 <0>        -0.2129
      8 C7          4.2644   -1.7944    3.7780 C.2       1 <0>         0.1460
      9 N2          4.2081   -1.1729    2.6296 N.2       1 <0>        -0.2558
     10 N3          2.8675   -0.9331    2.3054 N.am      1 <0>        -0.3564
     11 C8          2.2864   -0.3391    1.2439 C.2       1 <0>         0.5712
     12 O1          2.9730    0.1080    0.3424 O.2       1 <0>        -0.4831
     13 C9          5.5236   -2.2337    4.4798 C.3       1 <0>        -0.0039
     14 C10         6.0791   -1.0846    5.2812 C.ar      1 <0>        -0.0833
     15 C11         6.8794   -0.1381    4.6691 C.ar      1 <0>        -0.1037
     16 C12         7.3888    0.9159    5.4041 C.ar      1 <0>        -0.1205
     17 C13         7.0976    1.0238    6.7511 C.ar      1 <0>        -0.1185
     18 C14         6.2966    0.0778    7.3630 C.ar      1 <0>        -0.1218
     19 C15         5.7836   -0.9739    6.6270 C.ar      1 <0>        -0.1041
     20 C16         2.5613   -2.6484    5.5161 C.ar      1 <0>        -0.0056
     21 C17         1.9568   -1.9123    6.5339 C.ar      1 <0>        -0.1108
     22 C18         1.5947   -2.5353    7.7108 C.ar      1 <0>        -0.1159
     23 C19         1.8305   -3.8876    7.8816 C.ar      1 <0>        -0.1175
     24 C20         2.4305   -4.6231    6.8753 C.ar      1 <0>        -0.1152
     25 C21         2.7912   -4.0120    5.6917 C.ar      1 <0>        -0.1050
     26 C22        -1.3770   -0.6275    2.1213 C.3       1 <0>        -0.1295
     27 H1          1.2005    2.3268    0.3424 H         1 <0>         0.0573
     28 H2         -0.2897    2.4312   -0.6255 H         1 <0>         0.0628
     29 H3         -0.3866    2.1642    1.1317 H         1 <0>         0.0524
     30 H4         -0.7893    0.0572   -0.1121 H         1 <0>         0.0794
     31 H5          0.7978    0.2198   -0.9014 H         1 <0>         0.0817
     32 H6          5.2967   -3.0655    5.1467 H         1 <0>         0.0997
     33 H7          6.2597   -2.5507    3.7410 H         1 <0>         0.0980
     34 H8          7.1069   -0.2224    3.6167 H         1 <0>         0.1242
     35 H9          8.0147    1.6549    4.9261 H         1 <0>         0.1222
     36 H10         7.4963    1.8469    7.3256 H         1 <0>         0.1210
     37 H11         6.0693    0.1619    8.4155 H         1 <0>         0.1216
     38 H12         5.1547   -1.7108    7.1042 H         1 <0>         0.1220
     39 H13         1.7725   -0.8564    6.4017 H         1 <0>         0.1183
     40 H14         1.1266   -1.9659    8.5002 H         1 <0>         0.1234
     41 H15         1.5454   -4.3710    8.8044 H         1 <0>         0.1227
     42 H16         2.6128   -5.6785    7.0144 H         1 <0>         0.1248
     43 H17         3.2551   -4.5882    4.9048 H         1 <0>         0.1237
     44 H18        -1.7833   -1.5053    1.6189 H         1 <0>         0.1004
     45 H19        -1.7798   -0.5686    3.1325 H         1 <0>         0.0850
     46 H20        -1.6543    0.2692    1.5670 H         1 <0>         0.1053
     47 H21         0.1786   -1.6986    3.9687 H         1 <0>         0.4335
@<TRIPOS>BOND
     1    1    2 1
     2    1   27 1
     3    1   28 1
     4    1   29 1
     5    2    3 1
     6    2   30 1
     7    2   31 1
     8    3   11 1
     9    3    4 2
    10    4    5 1
    11    4   26 1
    12    5    6 1
    13    5   47 1
    14    6   10 1
    15    6    7 2
    16    7    8 1
    17    7   20 1
    18    8    9 2
    19    8   13 1
    20    9   10 1
    21   10   11 am
    22   11   12 2
    23   13   14 1
    24   13   32 1
    25   13   33 1
    26   14   19 ar
    27   14   15 ar
    28   15   16 ar
    29   15   34 1
    30   16   17 ar
    31   16   35 1
    32   17   18 ar
    33   17   36 1
    34   18   19 ar
    35   18   37 1
    36   19   38 1
    37   20   25 ar
    38   20   21 ar
    39   21   22 ar
    40   21   39 1
    41   22   23 ar
    42   22   40 1
    43   23   24 ar
    44   23   41 1
    45   24   25 ar
    46   24   42 1
    47   25   43 1
    48   26   44 1
    49   26   45 1
    50   26   46 1
@<TRIPOS>MOLECULE
ZINC09834116
   49    51     0     0     0
SMALL
USER_CHARGES
2-(4-cyclopropyl-4-methyl-2,5-dioxo-imidazolidin-1-yl)-N-[1-(4-sulfamoylphenyl)ethyl]acetamide
@<TRIPOS>ATOM
      1 C1         -0.0187    1.5258    0.0104 C.3       1 <0>        -0.1599
      2 C2          0.0021   -0.0041    0.0020 C.3       1 <0>         0.1774
      3 H1         -1.0205   -0.3814    0.0098 H         1 <0>         0.1046
      4 C3          0.7074   -0.4901   -1.2379 C.ar      1 <0>        -0.0329
      5 C4          2.0889   -0.5002   -1.2881 C.ar      1 <0>        -0.1370
      6 C5          2.7359   -0.9501   -2.4238 C.ar      1 <0>        -0.0117
      7 C6          2.0015   -1.3813   -3.5126 C.ar      1 <0>        -0.6751
      8 C7          0.6201   -1.3663   -3.4643 C.ar      1 <0>        -0.0113
      9 C8         -0.0269   -0.9205   -2.3270 C.ar      1 <0>        -0.1271
     10 S1          2.8262   -1.9507   -4.9619 S.o2      1 <0>         2.7013
     11 O1          4.1183   -2.3776   -4.5526 O.2       1 <0>        -0.9614
     12 O2          1.9173   -2.8111   -5.6349 O.2       1 <0>        -0.9611
     13 N1          3.0511   -0.6374   -5.9452 N.pl3     1 <0>        -1.2495
     14 N2          0.7106   -0.4894    1.1889 N.am      1 <0>        -0.7230
     15 C9          0.0512   -0.6335    2.3554 C.2       1 <0>         0.5064
     16 O3         -1.1288   -0.3614    2.4226 O.2       1 <0>        -0.5215
     17 C10         0.7801   -1.1327    3.5763 C.3       1 <0>         0.0987
     18 N3         -0.1498   -1.2008    4.7064 N.am      1 <0>        -0.5630
     19 C11        -0.8879   -2.2852    5.0151 C.2       1 <0>         0.5397
     20 O4         -0.9080   -3.3477    4.4316 O.2       1 <0>        -0.4544
     21 C12        -1.6886   -1.8999    6.2432 C.3       1 <0>         0.1566
     22 N4         -1.2692   -0.5130    6.5088 N.am      1 <0>        -0.7133
     23 C13        -0.3668   -0.1960    5.5627 C.2       1 <0>         0.7102
     24 O5          0.1870    0.8835    5.4919 O.2       1 <0>        -0.5392
     25 C14        -3.1888   -1.9654    5.9501 C.3       1 <0>        -0.1536
     26 C15        -1.3323   -2.8054    7.4239 C.3       1 <0>        -0.1645
     27 C16        -2.3571   -3.8638    7.8368 C.3       1 <0>        -0.1613
     28 C17        -2.1344   -2.6310    8.7151 C.3       1 <0>        -0.1637
     29 H2          1.0039    1.9031    0.0027 H         1 <0>         0.0634
     30 H3         -0.5459    1.8868   -0.8726 H         1 <0>         0.0719
     31 H4         -0.5289    1.8773    0.9072 H         1 <0>         0.0711
     32 H5          2.6626   -0.1597   -0.4388 H         1 <0>         0.1345
     33 H6          3.8152   -0.9621   -2.4614 H         1 <0>         0.1470
     34 H7          0.0463   -1.7032   -4.3150 H         1 <0>         0.1474
     35 H8         -1.1062   -0.9087   -2.2893 H         1 <0>         0.1388
     36 H9          2.7407    0.2376   -5.6643 H         1 <0>         0.4169
     37 H10         3.4933   -0.7431   -6.8021 H         1 <0>         0.4223
     38 H11         1.6544   -0.7070    1.1351 H         1 <0>         0.4034
     39 H12         1.1839   -2.1254    3.3778 H         1 <0>         0.1282
     40 H13         1.5952   -0.4503    3.8172 H         1 <0>         0.1311
     41 H14        -1.5801    0.0589    7.2280 H         1 <0>         0.4408
     42 H15        -3.4600   -2.9831    5.6693 H         1 <0>         0.0882
     43 H16        -3.7460   -1.6734    6.8403 H         1 <0>         0.0823
     44 H17        -3.4291   -1.2865    5.1320 H         1 <0>         0.0741
     45 H18        -0.2772   -3.0624    7.5177 H         1 <0>         0.1141
     46 H19        -3.2851   -3.9150    7.2673 H         1 <0>         0.1071
     47 H20        -1.9763   -4.8175    8.2023 H         1 <0>         0.1036
     48 H21        -1.6071   -2.7736    9.6583 H         1 <0>         0.1032
     49 H22        -2.9156   -1.8708    8.7235 H         1 <0>         0.1002
@<TRIPOS>BOND
     1    1    2 1
     2    1   29 1
     3    1   30 1
     4    1   31 1
     5    2    3 1
     6    2    4 1
     7    2   14 1
     8    4    9 ar
     9    4    5 ar
    10    5    6 ar
    11    5   32 1
    12    6    7 ar
    13    6   33 1
    14    7    8 ar
    15    7   10 1
    16    8    9 ar
    17    8   34 1
    18    9   35 1
    19   10   11 2
    20   10   12 2
    21   10   13 1
    22   13   36 1
    23   13   37 1
    24   14   15 am
    25   14   38 1
    26   15   16 2
    27   15   17 1
    28   17   18 1
    29   17   39 1
    30   17   40 1
    31   18   23 am
    32   18   19 am
    33   19   20 2
    34   19   21 1
    35   21   22 1
    36   21   25 1
    37   21   26 1
    38   22   23 am
    39   22   41 1
    40   23   24 2
    41   25   42 1
    42   25   43 1
    43   25   44 1
    44   26   28 1
    45   26   27 1
    46   26   45 1
    47   27   28 1
    48   27   46 1
    49   27   47 1
    50   28   48 1
    51   28   49 1
@<TRIPOS>MOLECULE
ZINC20188948
   48    50     0     0     0
SMALL
USER_CHARGES
fluoro-hydroxy-N-[2-(2-hydroxyethylamino)ethyl]-methyl-oxo-BLAHcarboxamide
@<TRIPOS>ATOM
      1 C1          0.0849    0.4805    2.2079 C.3       1 <0>        -0.2092
      2 C2          0.9552    1.7230    2.4070 C.3       1 <0>         0.1418
      3 H1          0.3369    2.5936    2.6711 H         1 <0>         0.0724
      4 C3          1.9869    1.4509    3.5026 C.3       1 <0>        -0.1328
      5 C4          2.8567    2.7000    3.6752 C.3       1 <0>        -0.0772
      6 C5          3.4983    3.0257    2.3494 C.ar      1 <0>        -0.1185
      7 C6          4.7142    3.6764    2.3323 C.ar      1 <0>        -0.1010
      8 C7          5.3275    4.0036    1.1308 C.ar      1 <0>         0.0440
      9 C8          4.7216    3.6744   -0.0634 C.ar      1 <0>        -0.0714
     10 C9          3.4921    3.0153   -0.0576 C.ar      1 <0>        -0.1653
     11 C10         2.8655    2.6877    1.1579 C.ar      1 <0>         0.2111
     12 N1          1.6399    2.0463    1.1491 N.pl3     1 <0>        -0.5152
     13 C11         1.0330    1.6964   -0.0134 C.2       1 <0>         0.5268
     14 C12         1.5843    1.9796   -1.2570 C.2       1 <0>        -0.5105
     15 C13         2.8339    2.6542   -1.3274 C.2       1 <0>         0.4395
     16 O1          3.3443    2.9247   -2.4009 O.2       1 <0>        -0.5539
     17 C14         0.8839    1.5872   -2.4848 C.2       1 <0>         0.6603
     18 O2          0.0927    2.3516   -3.0048 O.2       1 <0>        -0.5554
     19 N2          1.1168    0.3799   -3.0368 N.am      1 <0>        -0.7425
     20 C15         0.4173   -0.0121   -4.2630 C.3       1 <0>         0.1024
     21 C16         0.8592   -1.4177   -4.6750 C.3       1 <0>        -0.0130
     22 N3          0.1579   -1.8107   -5.9045 N.4       1 <0>        -0.5332
     23 C17         0.5582   -3.1582   -6.3311 C.3       1 <0>         0.0006
     24 C18        -0.1914   -3.5315   -7.6116 C.3       1 <0>         0.0574
     25 O3          0.2145   -2.6633   -8.6715 O.3       1 <0>        -0.6149
     26 O4         -0.1508    1.0554    0.0404 O.3       1 <0>        -0.6553
     27 F1          6.5179    4.6424    1.1314 F         1 <0>        -0.1438
     28 H2         -0.4284    0.2376    3.1500 H         1 <0>         0.0321
     29 H3          0.7187   -0.3666    1.9067 H         1 <0>         0.0408
     30 H4         -0.6612    0.6772    1.4239 H         1 <0>         0.1684
     31 H5          1.4687    1.2220    4.4455 H         1 <0>         0.0855
     32 H6          2.6138    0.5951    3.2116 H         1 <0>         0.0713
     33 H7          2.2290    3.5412    4.0045 H         1 <0>         0.0812
     34 H8          3.6333    2.5047    4.4294 H         1 <0>         0.0825
     35 H9          5.1948    3.9341    3.2645 H         1 <0>         0.1366
     36 H10         5.1970    3.9264   -0.9999 H         1 <0>         0.1438
     37 H11         1.8320   -0.3111   -2.5667 H         1 <0>         0.4200
     38 H12        -0.6680   -0.0067   -4.0837 H         1 <0>         0.0766
     39 H13         0.6597    0.6988   -5.0667 H         1 <0>         0.0761
     40 H14         1.9445   -1.4231   -4.8542 H         1 <0>         0.1327
     41 H15         0.6168   -2.1286   -3.8714 H         1 <0>         0.1328
     42 H16        -0.9274   -1.8053   -5.7252 H         1 <0>         0.4486
     43 H17         1.6414   -3.1757   -6.5220 H         1 <0>         0.1330
     44 H18         0.3137   -3.8813   -5.5391 H         1 <0>         0.1395
     45 H19         0.0397   -4.5725   -7.8815 H         1 <0>         0.0869
     46 H20        -1.2739   -3.4272   -7.4464 H         1 <0>         0.0668
     47 H21        -0.2200   -2.7803   -9.6753 H         1 <0>         0.4426
     48 H22         0.4003   -1.0998   -6.7081 H         1 <0>         0.4591
@<TRIPOS>BOND
     1    1    2 1
     2    1   28 1
     3    1   29 1
     4    1   30 1
     5    2    3 1
     6    2   12 1
     7    2    4 1
     8    4    5 1
     9    4   31 1
    10    4   32 1
    11    5    6 1
    12    5   33 1
    13    5   34 1
    14    6   11 ar
    15    6    7 ar
    16    7    8 ar
    17    7   35 1
    18    8    9 ar
    19    8   27 1
    20    9   10 ar
    21    9   36 1
    22   10   15 1
    23   10   11 ar
    24   11   12 1
    25   12   13 1
    26   13   14 2
    27   13   26 1
    28   14   15 1
    29   14   17 1
    30   15   16 2
    31   17   18 2
    32   17   19 am
    33   19   20 1
    34   19   37 1
    35   20   21 1
    36   20   38 1
    37   20   39 1
    38   21   22 1
    39   21   40 1
    40   21   41 1
    41   22   23 1
    42   22   42 1
    43   22   48 1
    44   23   24 1
    45   23   43 1
    46   23   44 1
    47   24   25 1
    48   24   45 1
    49   24   46 1
    50   25   47 1
@<TRIPOS>MOLECULE
ZINC33925780
   56    59     0     0     0
SMALL
USER_CHARGES

@<TRIPOS>ATOM
      1 C1         -0.0187    1.5258    0.0104 C.3       1 <0>        -0.1486
      2 C2          0.0021   -0.0041    0.0020 C.3       1 <0>        -0.0871
      3 C3          0.7074   -0.4901   -1.2379 C.ar      1 <0>        -0.0835
      4 C4         -0.0121   -0.7180   -2.3965 C.ar      1 <0>        -0.0953
      5 C5          0.6317   -1.1635   -3.5344 C.ar      1 <0>        -0.1346
      6 C6          2.0025   -1.3819   -3.5143 C.ar      1 <0>         0.1120
      7 C7          2.7223   -1.1517   -2.3497 C.ar      1 <0>        -0.1320
      8 C8          2.0738   -0.7017   -1.2163 C.ar      1 <0>        -0.0931
      9 N1          2.6587   -1.8345   -4.6677 N.am      1 <0>        -0.5346
     10 C9          2.0210   -2.0802   -5.8585 C.2       1 <0>         0.5889
     11 O1          0.8975   -1.7546   -6.1770 O.2       1 <0>        -0.4292
     12 C10         2.9821   -2.8113   -6.6465 C.3       1 <0>        -0.1972
     13 H1          2.9929   -3.7872   -6.1611 H         1 <0>         0.1232
     14 C11         3.2823   -3.1478   -8.0489 C.3       1 <0>         0.1370
     15 H2          3.3054   -2.2509   -8.6678 H         1 <0>         0.1628
     16 N2          4.6515   -3.7599   -7.9397 N.4       1 <0>        -0.4975
     17 C12         5.2801   -3.2519   -6.6838 C.3       1 <0>         0.0020
     18 C13         4.3396   -2.1408   -6.1932 C.3       1 <0>        -0.1030
     19 H3          4.5321   -1.1660   -6.6413 H         1 <0>         0.1734
     20 C14         4.0024   -2.0730   -4.7295 C.2       1 <0>         0.5462
     21 O2          4.7658   -2.2052   -3.7971 O.2       1 <0>        -0.4054
     22 C15         5.3922   -4.3782   -5.6544 C.3       1 <0>         0.0718
     23 O3          6.2253   -5.4168   -6.1734 O.3       1 <0>        -0.5596
     24 C16         6.6410   -2.6752   -6.9779 C.2       1 <0>         0.5141
     25 O4          7.0807   -2.6995   -8.1148 O.co2     1 <0>        -0.6529
     26 O5          7.3022   -2.1842   -6.0789 O.co2     1 <0>        -0.6112
     27 C17         2.2883   -4.1443   -8.5875 C.ar      1 <0>        -0.0980
     28 C18         2.4243   -5.4865   -8.2850 C.ar      1 <0>        -0.1470
     29 C19         1.5151   -6.4045   -8.7767 C.ar      1 <0>        -0.0905
     30 C20         0.4644   -5.9802   -9.5741 C.ar      1 <0>         0.1017
     31 C21         0.3273   -4.6292   -9.8781 C.ar      1 <0>         0.1195
     32 C22         1.2393   -3.7136   -9.3781 C.ar      1 <0>        -0.1555
     33 O6         -0.7023   -4.2078  -10.6603 O.3       1 <0>        -0.2990
     34 C23        -0.7803   -2.8068  -10.9308 C.3       1 <0>         0.0189
     35 O7         -0.4306   -6.8820  -10.0589 O.3       1 <0>        -0.4815
     36 H4          1.0039    1.9031    0.0027 H         1 <0>         0.0569
     37 H5         -0.5459    1.8868   -0.8726 H         1 <0>         0.0562
     38 H6         -0.5289    1.8773    0.9072 H         1 <0>         0.0606
     39 H7          0.5293   -0.3651    0.8851 H         1 <0>         0.0748
     40 H8         -1.0205   -0.3814    0.0098 H         1 <0>         0.0741
     41 H9         -1.0785   -0.5480   -2.4115 H         1 <0>         0.1317
     42 H10         0.0691   -1.3420   -4.4389 H         1 <0>         0.1484
     43 H11         3.7887   -1.3210   -2.3310 H         1 <0>         0.1501
     44 H12         2.6337   -0.5188   -0.3111 H         1 <0>         0.1331
     45 H13         4.5742   -4.7652   -7.9006 H         1 <0>         0.4225
     46 H14         5.8284   -3.9879   -4.7349 H         1 <0>         0.1107
     47 H15         4.4004   -4.7787   -5.4446 H         1 <0>         0.0503
     48 H16         6.3411   -6.1654   -5.5724 H         1 <0>         0.3991
     49 H17         3.2428   -5.8186   -7.6636 H         1 <0>         0.1271
     50 H18         1.6240   -7.4525   -8.5395 H         1 <0>         0.1497
     51 H19         1.1330   -2.6641   -9.6095 H         1 <0>         0.1472
     52 H20        -0.8824   -2.2608   -9.9930 H         1 <0>         0.0621
     53 H21         0.1269   -2.4844  -11.4420 H         1 <0>         0.0609
     54 H22        -1.6447   -2.6065  -11.5639 H         1 <0>         0.1086
     55 H23        -1.1905   -7.0322   -9.4800 H         1 <0>         0.3964
     56 H24         5.2107   -3.4902   -8.7350 H         1 <0>         0.4443
@<TRIPOS>BOND
     1    1    2 1
     2    1   36 1
     3    1   37 1
     4    1   38 1
     5    2    3 1
     6    2   39 1
     7    2   40 1
     8    3    8 ar
     9    3    4 ar
    10    4    5 ar
    11    4   41 1
    12    5    6 ar
    13    5   42 1
    14    6    7 ar
    15    6    9 1
    16    7    8 ar
    17    7   43 1
    18    8   44 1
    19    9   20 am
    20    9   10 am
    21   10   11 2
    22   10   12 1
    23   12   13 1
    24   12   18 1
    25   12   14 1
    26   14   15 1
    27   14   16 1
    28   14   27 1
    29   16   17 1
    30   16   45 1
    31   16   56 1
    32   17   18 1
    33   17   22 1
    34   17   24 1
    35   18   19 1
    36   18   20 1
    37   20   21 2
    38   22   23 1
    39   22   46 1
    40   22   47 1
    41   23   48 1
    42   24   25 2
    43   24   26 1
    44   27   32 ar
    45   27   28 ar
    46   28   29 ar
    47   28   49 1
    48   29   30 ar
    49   29   50 1
    50   30   31 ar
    51   30   35 1
    52   31   32 ar
    53   31   33 1
    54   32   51 1
    55   33   34 1
    56   34   52 1
    57   34   53 1
    58   34   54 1
    59   35   55 1
@<TRIPOS>MOLECULE
ZINC04278910
   43    44     0     0     0
SMALL
USER_CHARGES

@<TRIPOS>ATOM
      1 C1          1.0001    1.1733   -0.5538 C.3       1 <0>        -0.2112
      2 C2          0.4603   -0.2073   -0.2822 C.2       1 <0>         0.3516
      3 O1          0.0500   -0.4896    0.8179 O.2       1 <0>        -0.4099
      4 C3          0.4326   -1.2356   -1.3835 C.3       1 <0>        -0.1500
      5 H1          0.4794   -0.7367   -2.3514 H         1 <0>         0.1465
      6 C4         -0.8583   -2.0560   -1.2892 C.3       1 <0>         0.2048
      7 H2         -1.7180   -1.3864   -1.3133 H         1 <0>         0.1182
      8 N1         -0.8589   -2.8079   -0.0332 N.am      1 <0>        -0.7145
      9 C5          0.2857   -3.2031    0.5438 C.2       1 <0>         0.7362
     10 O2          0.2288   -3.8347    1.5813 O.2       1 <0>        -0.5715
     11 N2          1.4906   -2.9297    0.0215 N.am      1 <0>        -0.7402
     12 C6          1.6286   -2.1820   -1.2341 C.3       1 <0>         0.3281
     13 C7          2.9245   -1.3688   -1.2124 C.3       1 <0>         0.4240
     14 F1          2.9613   -0.5808   -0.0571 F         1 <0>        -0.1655
     15 F2          4.0207   -2.2381   -1.2191 F         1 <0>        -0.1698
     16 F3          2.9764   -0.5441   -2.3413 F         1 <0>        -0.1576
     17 O3          1.6549   -3.0955   -2.3326 O.3       1 <0>        -0.5096
     18 C8         -0.9327   -3.0132   -2.4508 C.ar      1 <0>        -0.0297
     19 C9         -0.5472   -4.3302   -2.2845 C.ar      1 <0>        -0.1784
     20 C10        -0.6138   -5.2140   -3.3509 C.ar      1 <0>         0.1397
     21 C11        -1.0692   -4.7741   -4.5881 C.ar      1 <0>         0.0476
     22 C12        -1.4563   -3.4493   -4.7510 C.ar      1 <0>         0.1425
     23 C13        -1.3916   -2.5731   -3.6782 C.ar      1 <0>        -0.2165
     24 O4         -1.9026   -3.0141   -5.9597 O.3       1 <0>        -0.3030
     25 C14        -2.2835   -1.6400   -6.0542 C.3       1 <0>         0.0248
     26 O5         -1.1356   -5.6383   -5.6373 O.3       1 <0>        -0.4737
     27 O6         -0.2335   -6.5093   -3.1865 O.3       1 <0>        -0.3026
     28 C15         0.2245   -6.8912   -1.8879 C.3       1 <0>         0.0279
     29 H3          2.0493    1.2171   -0.2619 H         1 <0>         0.1081
     30 H4          0.9090    1.3963   -1.6168 H         1 <0>         0.0896
     31 H5          0.4322    1.9049    0.0210 H         1 <0>         0.0983
     32 H6         -1.7041   -3.0244    0.3905 H         1 <0>         0.4250
     33 H7          2.2883   -3.2318    0.4833 H         1 <0>         0.4212
     34 H8          2.3879   -3.7255   -2.3028 H         1 <0>         0.3914
     35 H9         -0.1934   -4.6712   -1.3227 H         1 <0>         0.1294
     36 H10        -1.6963   -1.5445   -3.8028 H         1 <0>         0.1342
     37 H11        -3.0933   -1.4384   -5.3530 H         1 <0>         0.0570
     38 H12        -1.4284   -1.0086   -5.8131 H         1 <0>         0.0578
     39 H13        -2.6193   -1.4250   -7.0687 H         1 <0>         0.1032
     40 H14        -1.9810   -6.1017   -5.7124 H         1 <0>         0.3828
     41 H15         1.0959   -6.2938   -1.6197 H         1 <0>         0.0538
     42 H16        -0.5688   -6.7241   -1.1592 H         1 <0>         0.0561
     43 H17         0.4957   -7.9469   -1.8941 H         1 <0>         0.1040
@<TRIPOS>BOND
     1    1    2 1
     2    1   29 1
     3    1   30 1
     4    1   31 1
     5    2    3 2
     6    2    4 1
     7    4    5 1
     8    4   12 1
     9    4    6 1
    10    6    7 1
    11    6    8 1
    12    6   18 1
    13    8    9 am
    14    8   32 1
    15    9   10 2
    16    9   11 am
    17   11   12 1
    18   11   33 1
    19   12   13 1
    20   12   17 1
    21   13   14 1
    22   13   15 1
    23   13   16 1
    24   17   34 1
    25   18   23 ar
    26   18   19 ar
    27   19   20 ar
    28   19   35 1
    29   20   21 ar
    30   20   27 1
    31   21   22 ar
    32   21   26 1
    33   22   23 ar
    34   22   24 1
    35   23   36 1
    36   24   25 1
    37   25   37 1
    38   25   38 1
    39   25   39 1
    40   26   40 1
    41   27   28 1
    42   28   41 1
    43   28   42 1
    44   28   43 1
@<TRIPOS>MOLECULE
ZINC65182133
   46    47     0     0     0
SMALL
USER_CHARGES

@<TRIPOS>ATOM
      1 C1         -0.0187    1.5258    0.0104 C.3       1 <0>        -0.1676
      2 C2          0.0021   -0.0041    0.0020 C.3       1 <0>         0.1367
      3 H1          0.5293   -0.3651    0.8851 H         1 <0>         0.1394
      4 C3         -1.4117   -0.5257    0.0127 C.2       1 <0>         0.5145
      5 O1         -1.8076   -1.2234   -0.8969 O.2       1 <0>        -0.5238
      6 N1         -2.2363   -0.2169    1.0331 N.am      1 <0>        -0.5204
      7 N2         -3.5506   -0.7018    1.0431 N.am      1 <0>        -0.5308
      8 C4         -4.3751   -0.3929    2.0635 C.2       1 <0>         0.7136
      9 O2         -5.5158   -0.8138    2.0721 O.2       1 <0>        -0.5632
     10 N3         -3.9352    0.3824    3.0743 N.am      1 <0>        -0.7414
     11 C5         -4.8315    0.7181    4.1835 C.3       1 <0>         0.1376
     12 C6         -4.0904    1.6023    5.1884 C.3       1 <0>        -0.1095
     13 C7         -3.7414    2.9392    4.5311 C.3       1 <0>        -0.1506
     14 C8         -4.9836    1.8502    6.4056 C.3       1 <0>        -0.1467
     15 N4          0.6878   -0.4765   -1.2033 N.pl3     1 <0>        -0.6539
     16 C9          2.0609   -0.5894   -1.2152 C.2       1 <0>         0.5214
     17 N5          2.7522   -0.2850   -0.1632 N.2       1 <0>        -0.8894
     18 S1          4.3523   -0.5528   -0.5741 S.o2      1 <0>         2.5852
     19 O3          5.0061    0.7082   -0.6133 O.2       1 <0>        -0.9393
     20 O4          4.8183   -1.6535    0.1945 O.2       1 <0>        -0.9397
     21 C10         4.1481   -1.1074   -2.2446 C.ar      1 <0>        -0.6152
     22 C11         2.7579   -1.0629   -2.4209 C.ar      1 <0>        -0.1243
     23 C12         2.2530   -1.4556   -3.6697 C.ar      1 <0>        -0.0485
     24 C13         3.1084   -1.8692   -4.6664 C.ar      1 <0>        -0.0856
     25 C14         4.4758   -1.9069   -4.4611 C.ar      1 <0>        -0.0887
     26 C15         4.9938   -1.5131   -3.2349 C.ar      1 <0>         0.0050
     27 H2          1.0039    1.9031    0.0027 H         1 <0>         0.0907
     28 H3         -0.5459    1.8868   -0.8726 H         1 <0>         0.0716
     29 H4         -0.5289    1.8773    0.9072 H         1 <0>         0.0789
     30 H5         -1.9197    0.3412    1.7606 H         1 <0>         0.4230
     31 H6         -3.8672   -1.2598    0.3156 H         1 <0>         0.4450
     32 H7         -3.0252    0.7181    3.0675 H         1 <0>         0.3906
     33 H8         -5.6999    1.2535    3.7997 H         1 <0>         0.0728
     34 H9         -5.1579   -0.1975    4.6767 H         1 <0>         0.0724
     35 H10        -3.1746    1.1033    5.5053 H         1 <0>         0.0783
     36 H11        -4.6571    3.4382    4.2142 H         1 <0>         0.0599
     37 H12        -3.2134    3.5691    5.2470 H         1 <0>         0.0616
     38 H13        -3.1050    2.7626    3.6640 H         1 <0>         0.0510
     39 H14        -5.2322    0.8978    6.8738 H         1 <0>         0.0599
     40 H15        -4.4556    2.4802    7.1214 H         1 <0>         0.0630
     41 H16        -5.8993    2.3493    6.0886 H         1 <0>         0.0601
     42 H17         0.1751   -0.7099   -1.9930 H         1 <0>         0.4249
     43 H18         1.1883   -1.4337   -3.8499 H         1 <0>         0.1411
     44 H19         2.7056   -2.1690   -5.6226 H         1 <0>         0.1459
     45 H20         5.1358   -2.2337   -5.2510 H         1 <0>         0.1484
     46 H21         6.0596   -1.5386   -3.0622 H         1 <0>         0.1462
@<TRIPOS>BOND
     1    1    2 1
     2    1   27 1
     3    1   28 1
     4    1   29 1
     5    2    3 1
     6    2    4 1
     7    2   15 1
     8    4    5 2
     9    4    6 am
    10    6    7 1
    11    6   30 1
    12    7    8 am
    13    7   31 1
    14    8    9 2
    15    8   10 am
    16   10   11 1
    17   10   32 1
    18   11   12 1
    19   11   33 1
    20   11   34 1
    21   12   13 1
    22   12   14 1
    23   12   35 1
    24   13   36 1
    25   13   37 1
    26   13   38 1
    27   14   39 1
    28   14   40 1
    29   14   41 1
    30   15   16 1
    31   15   42 1
    32   16   22 1
    33   16   17 2
    34   17   18 1
    35   18   19 2
    36   18   20 2
    37   18   21 1
    38   21   26 ar
    39   21   22 ar
    40   22   23 ar
    41   23   24 ar
    42   23   43 1
    43   24   25 ar
    44   24   44 1
    45   25   26 ar
    46   25   45 1
    47   26   46 1
@<TRIPOS>MOLECULE
ZINC09544311
   57    57     0     0     0
SMALL
USER_CHARGES
2-[4-amino-5-[2-methoxyethyl-(2,2,2-trifluoroacetyl)-amino]-2,6-dioxo-3-propyl-pyrimidin-1-yl]-N-(ethylcarbamoyl)acetamide
@<TRIPOS>ATOM
      1 C1         -8.2736   -1.4764    0.1336 C.3       1 <0>        -0.1489
      2 C2         -6.9046   -0.9838    0.6068 C.3       1 <0>        -0.1469
      3 C3         -5.9444   -2.1702    0.7130 C.3       1 <0>         0.1033
      4 N1         -4.6335   -1.6985    1.1661 N.am      1 <0>        -0.5351
      5 C4         -3.6918   -1.3058    0.2436 C.2       1 <0>         0.5095
      6 C5         -2.4586   -0.8702    0.6834 C.2       1 <0>        -0.1817
      7 C6         -2.2065   -0.8295    2.0675 C.2       1 <0>         0.5729
      8 O1         -1.1269   -0.4444    2.4837 O.2       1 <0>        -0.4873
      9 N2         -3.1658   -1.2194    2.9296 N.am      1 <0>        -0.5397
     10 C7         -4.3599   -1.6468    2.4824 C.2       1 <0>         0.7181
     11 O2         -5.2077   -1.9932    3.2823 O.2       1 <0>        -0.5255
     12 C8         -2.9049   -1.1776    4.3706 C.3       1 <0>         0.0999
     13 C9         -3.3104    0.1676    4.9157 C.2       1 <0>         0.5078
     14 O3         -3.7717    1.0082    4.1739 O.2       1 <0>        -0.4487
     15 N3         -3.1603    0.4360    6.2279 N.am      1 <0>        -0.6883
     16 C10        -3.5229    1.6391    6.7154 C.2       1 <0>         0.6937
     17 O4         -3.9854    2.4818    5.9718 O.2       1 <0>        -0.5264
     18 N4         -3.3728    1.9075    8.0276 N.am      1 <0>        -0.7382
     19 C11        -3.7670    3.2152    8.5575 C.3       1 <0>         0.1290
     20 C12        -3.4945    3.2588   10.0625 C.3       1 <0>        -0.1653
     21 N5         -1.4694   -0.4670   -0.2383 N.am      1 <0>        -0.4899
     22 C13        -0.7618   -1.4695   -1.0388 C.3       1 <0>         0.1131
     23 C14         0.5623   -1.8232   -0.3587 C.3       1 <0>         0.0458
     24 O5          0.2996   -2.4570    0.8948 O.3       1 <0>        -0.3762
     25 C15         1.4760   -2.8302    1.6152 C.3       1 <0>         0.0383
     26 C16        -1.1750    0.8419   -0.3826 C.2       1 <0>         0.4982
     27 O6         -0.3890    1.1964   -1.2362 O.2       1 <0>        -0.4758
     28 C17        -1.8225    1.8634    0.5164 C.3       1 <0>         0.4492
     29 F1         -1.4723    3.1489    0.0898 F         1 <0>        -0.1599
     30 F2         -3.2128    1.7170    0.4631 F         1 <0>        -0.1693
     31 F3         -1.3836    1.6726    1.8310 F         1 <0>        -0.1431
     32 N6         -3.9738   -1.3524   -1.1007 N.pl3     1 <0>        -0.8265
     33 H1         -8.1717   -1.9499   -0.8429 H         1 <0>         0.0581
     34 H2         -8.6668   -2.1991    0.8485 H         1 <0>         0.0622
     35 H3         -8.9577   -0.6312    0.0579 H         1 <0>         0.0655
     36 H4         -7.0065   -0.5103    1.5833 H         1 <0>         0.0796
     37 H5         -6.5114   -0.2610   -0.1081 H         1 <0>         0.0689
     38 H6         -5.8425   -2.6437   -0.2635 H         1 <0>         0.0942
     39 H7         -6.3375   -2.8930    1.4280 H         1 <0>         0.1155
     40 H8         -3.4803   -1.9592    4.8668 H         1 <0>         0.1348
     41 H9         -1.8422   -1.3379    4.5522 H         1 <0>         0.1390
     42 H10        -2.7912   -0.2366    6.8214 H         1 <0>         0.4105
     43 H11        -3.0037    1.2349    8.6211 H         1 <0>         0.3988
     44 H12        -3.1916    3.9968    8.0613 H         1 <0>         0.0699
     45 H13        -4.8297    3.3755    8.3759 H         1 <0>         0.0697
     46 H14        -3.7878    4.2318   10.4567 H         1 <0>         0.0778
     47 H15        -4.0699    2.4773   10.5587 H         1 <0>         0.0628
     48 H16        -2.4318    3.0985   10.2441 H         1 <0>         0.0630
     49 H17        -0.5639   -1.0675   -2.0324 H         1 <0>         0.1086
     50 H18        -1.3766   -2.3654   -1.1251 H         1 <0>         0.0960
     51 H19         1.1288   -2.5013   -0.9970 H         1 <0>         0.0633
     52 H20         1.1395   -0.9137   -0.1921 H         1 <0>         0.0569
     53 H21         2.0614   -3.5291    1.0179 H         1 <0>         0.0372
     54 H22         2.0721   -1.9416    1.8228 H         1 <0>         0.0407
     55 H23         1.1916   -3.3045    2.5545 H         1 <0>         0.0830
     56 H24        -3.2788   -1.1587   -1.7491 H         1 <0>         0.4254
     57 H25        -4.8679   -1.5790   -1.4011 H         1 <0>         0.4125
@<TRIPOS>BOND
     1    1    2 1
     2    1   33 1
     3    1   34 1
     4    1   35 1
     5    2    3 1
     6    2   36 1
     7    2   37 1
     8    3    4 1
     9    3   38 1
    10    3   39 1
    11    4   10 am
    12    4    5 1
    13    5    6 2
    14    5   32 1
    15    6    7 1
    16    6   21 1
    17    7    8 2
    18    7    9 am
    19    9   10 am
    20    9   12 1
    21   10   11 2
    22   12   13 1
    23   12   40 1
    24   12   41 1
    25   13   14 2
    26   13   15 am
    27   15   16 am
    28   15   42 1
    29   16   17 2
    30   16   18 am
    31   18   19 1
    32   18   43 1
    33   19   20 1
    34   19   44 1
    35   19   45 1
    36   20   46 1
    37   20   47 1
    38   20   48 1
    39   21   22 1
    40   21   26 am
    41   22   23 1
    42   22   49 1
    43   22   50 1
    44   23   24 1
    45   23   51 1
    46   23   52 1
    47   24   25 1
    48   25   53 1
    49   25   54 1
    50   25   55 1
    51   26   27 2
    52   26   28 1
    53   28   29 1
    54   28   30 1
    55   28   31 1
    56   32   56 1
    57   32   57 1
@<TRIPOS>MOLECULE
ZINC18367433
   60    63     0     0     0
SMALL
USER_CHARGES
N-(6-amino-1-butyl-2,4-dioxo-pyrimidin-5-yl)-N-cyclopentyl-2-[[5-(1H-pyrrol-2-yl)-1,3,4-oxadiazol-2-yl]sulfanyl]acetamide
@<TRIPOS>ATOM
      1 C1         -3.6605    2.4792   -4.5847 C.3       1 <0>        -0.1534
      2 C2         -2.6573    3.4872   -4.0205 C.3       1 <0>        -0.1209
      3 C3         -2.0480    2.9332   -2.7310 C.3       1 <0>        -0.1392
      4 C4         -1.0448    3.9413   -2.1668 C.3       1 <0>         0.1036
      5 N1         -0.4614    3.4108   -0.9321 N.am      1 <0>        -0.5369
      6 C5          0.6829    2.6496   -0.9886 C.2       1 <0>         0.5034
      7 C6          1.2224    2.1563    0.1817 C.2       1 <0>        -0.1602
      8 C7          0.5826    2.4487    1.4009 C.2       1 <0>         0.5687
      9 O1          1.0377    2.0252    2.4499 O.2       1 <0>        -0.5162
     10 N2         -0.5392    3.1950    1.4005 N.am      1 <0>        -0.6624
     11 H1         -0.9989    3.3969    2.2653 H         1 <0>         0.4406
     12 C8         -1.0478    3.6715    0.2504 C.2       1 <0>         0.7125
     13 O2         -2.0589    4.3464    0.2792 O.2       1 <0>        -0.5306
     14 N3          2.3950    1.3720    0.1567 N.am      1 <0>        -0.5039
     15 C9          2.3413   -0.0384    0.5490 C.3       1 <0>         0.1410
     16 C10         3.2470   -0.2811    1.7740 C.3       1 <0>        -0.1385
     17 C11         3.8640   -1.6794    1.5183 C.3       1 <0>        -0.1247
     18 C12         4.1087   -1.6714   -0.0111 C.3       1 <0>        -0.1436
     19 C13         2.8885   -0.9223   -0.5855 C.3       1 <0>        -0.1461
     20 C14         3.5658    1.9211   -0.2285 C.2       1 <0>         0.5307
     21 O3          3.6310    3.1102   -0.4606 O.2       1 <0>        -0.5077
     22 C15         4.7925    1.0574   -0.3706 C.3       1 <0>        -0.1850
     23 S1          6.2325    2.1037   -0.6989 S.3       1 <0>         0.1452
     24 C16         7.4860    0.8710   -0.8166 C.2       1 <0>         0.1181
     25 N4          7.3171   -0.4232   -0.6803 N.2       1 <0>        -0.2812
     26 N5          8.4458   -1.0216   -0.8323 N.2       1 <0>        -0.2794
     27 C17         9.3835   -0.1318   -1.0624 C.2       1 <0>         0.2496
     28 O4          8.7944    1.0853   -1.0571 O.3       1 <0>        -0.1905
     29 C18        10.8110   -0.4079   -1.2845 C.2       1 <0>         0.0549
     30 C19        11.7820    0.5213   -1.5290 C.2       1 <0>        -0.1240
     31 C20        12.9940   -0.1698   -1.6765 C.2       1 <0>        -0.2025
     32 C21        12.7372   -1.4883   -1.5291 C.2       1 <0>         0.0354
     33 N6         11.4047   -1.6465   -1.2888 N.pl3     1 <0>        -0.5311
     34 H2         10.9517   -2.4921   -1.1450 H         1 <0>         0.4259
     35 N7          1.2815    2.3830   -2.1966 N.pl3     1 <0>        -0.8228
     36 H3         -4.0945    2.8738   -5.5033 H         1 <0>         0.0589
     37 H4         -3.1506    1.5397   -4.7981 H         1 <0>         0.0543
     38 H5         -4.4510    2.3057   -3.8545 H         1 <0>         0.0564
     39 H6         -3.1672    4.4266   -3.8070 H         1 <0>         0.0698
     40 H7         -1.8668    3.6606   -4.7506 H         1 <0>         0.0655
     41 H8         -1.5381    1.9938   -2.9444 H         1 <0>         0.0687
     42 H9         -2.8386    2.7598   -2.0008 H         1 <0>         0.0780
     43 H10        -1.5548    4.8807   -1.9533 H         1 <0>         0.1140
     44 H11        -0.2543    4.1147   -2.8969 H         1 <0>         0.0916
     45 H12         1.3149   -0.3223    0.7815 H         1 <0>         0.1022
     46 H13         4.0287    0.4768    1.8266 H         1 <0>         0.0714
     47 H14         2.6565   -0.2855    2.6902 H         1 <0>         0.0850
     48 H15         3.1621   -2.4667    1.7931 H         1 <0>         0.0730
     49 H16         4.8033   -1.7953    2.0591 H         1 <0>         0.0726
     50 H17         4.1470   -2.6902   -0.3967 H         1 <0>         0.0726
     51 H18         5.0295   -1.1382   -0.2474 H         1 <0>         0.0875
     52 H19         2.1280   -1.6356   -0.9031 H         1 <0>         0.0815
     53 H20         3.1940   -0.3018   -1.4280 H         1 <0>         0.0668
     54 H21         4.9522    0.4985    0.5516 H         1 <0>         0.1482
     55 H22         4.6530    0.3613   -1.1977 H         1 <0>         0.1427
     56 H23        11.6428    1.5903   -1.5942 H         1 <0>         0.1488
     57 H24        13.9588    0.2724   -1.8762 H         1 <0>         0.1503
     58 H25        13.4656   -2.2834   -1.5910 H         1 <0>         0.1806
     59 H26         2.0338    1.7722   -2.2408 H         1 <0>         0.4207
     60 H27         0.9518    2.8056   -3.0051 H         1 <0>         0.4099
@<TRIPOS>BOND
     1    1    2 1
     2    1   36 1
     3    1   37 1
     4    1   38 1
     5    2    3 1
     6    2   39 1
     7    2   40 1
     8    3    4 1
     9    3   41 1
    10    3   42 1
    11    4    5 1
    12    4   43 1
    13    4   44 1
    14    5   12 am
    15    5    6 1
    16    6    7 2
    17    6   35 1
    18    7    8 1
    19    7   14 1
    20    8    9 2
    21    8   10 am
    22   10   11 1
    23   10   12 am
    24   12   13 2
    25   14   15 1
    26   14   20 am
    27   15   19 1
    28   15   16 1
    29   15   45 1
    30   16   17 1
    31   16   46 1
    32   16   47 1
    33   17   18 1
    34   17   48 1
    35   17   49 1
    36   18   19 1
    37   18   50 1
    38   18   51 1
    39   19   52 1
    40   19   53 1
    41   20   21 2
    42   20   22 1
    43   22   23 1
    44   22   54 1
    45   22   55 1
    46   23   24 1
    47   24   28 1
    48   24   25 2
    49   25   26 1
    50   26   27 2
    51   27   28 1
    52   27   29 1
    53   29   33 1
    54   29   30 2
    55   30   31 1
    56   30   56 1
    57   31   32 2
    58   31   57 1
    59   32   33 1
    60   32   58 1
    61   33   34 1
    62   35   59 1
    63   35   60 1
@<TRIPOS>MOLECULE
ZINC21259565
   62    64     0     0     0
SMALL
USER_CHARGES
N-(6-amino-1-isobutyl-2,4-dioxo-pyrimidin-5-yl)-N-isobutyl-2-[(5-phenyl-4H-1,2,4-triazol-3-yl)sulfanyl]acetamide
@<TRIPOS>ATOM
      1 C1         -3.7477   12.0032    0.2630 C.3       1 <0>        -0.1454
      2 C2         -3.7740   11.1704   -1.0202 C.3       1 <0>        -0.1131
      3 C3         -4.5534   11.9228   -2.1007 C.3       1 <0>        -0.1492
      4 C4         -2.3417   10.9277   -1.5002 C.3       1 <0>         0.1042
      5 N1         -1.6306   10.1049   -0.5186 N.am      1 <0>        -0.5376
      6 C5         -1.6563    8.7340   -0.6288 C.2       1 <0>         0.5077
      7 C6         -0.9827    7.9705    0.3026 C.2       1 <0>        -0.1945
      8 C7         -0.2929    8.6207    1.3431 C.2       1 <0>         0.5618
      9 O1          0.3065    7.9702    2.1825 O.2       1 <0>        -0.5189
     10 N2         -0.2944    9.9668    1.4021 N.am      1 <0>        -0.6764
     11 H1          0.2502   10.4827    2.2066 H         1 <0>         0.4638
     12 C8         -0.9566   10.6945    0.4854 C.2       1 <0>         0.7091
     13 O2         -0.9456   11.9079    0.5651 O.2       1 <0>        -0.5258
     14 N3         -0.9902    6.5623    0.2168 N.am      1 <0>        -0.5106
     15 C9         -2.2271    5.8195    0.4709 C.3       1 <0>         0.1108
     16 C10        -2.3948    5.6081    1.9769 C.3       1 <0>        -0.1050
     17 C11        -3.7475    4.9482    2.2518 C.3       1 <0>        -0.1472
     18 C12        -1.2726    4.7053    2.4933 C.3       1 <0>        -0.1421
     19 C13         0.1419    5.8996   -0.0994 C.2       1 <0>         0.5575
     20 O3          0.1161    4.6974   -0.2614 O.2       1 <0>        -0.5073
     21 C14         1.4384    6.6526   -0.2512 C.3       1 <0>        -0.1876
     22 S1          2.7795    5.4839   -0.5853 S.3       1 <0>         0.1228
     23 C15         4.1350    6.6022   -0.7140 C.2       1 <0>         0.1735
     24 N4          5.4363    6.2723   -0.9647 N.2       1 <0>        -0.4733
     25 H2          3.2226    8.5644   -0.3814 H         1 <0>         0.4715
     26 C16         6.1261    7.4628   -0.9731 C.2       1 <0>         0.2393
     27 N5          5.2536    8.4153   -0.7396 N.2       1 <0>        -0.3202
     28 N6          4.0822    7.9094   -0.5866 N.pl3     1 <0>        -0.3929
     29 C17         7.5762    7.6363   -1.2019 C.ar      1 <0>        -0.0096
     30 C18         8.3872    6.5244   -1.4345 C.ar      1 <0>        -0.0791
     31 C19         9.7388    6.6939   -1.6526 C.ar      1 <0>        -0.1232
     32 C20        10.2928    7.9615   -1.6300 C.ar      1 <0>        -0.1061
     33 C21         9.4954    9.0675   -1.3948 C.ar      1 <0>        -0.1242
     34 C22         8.1415    8.9123   -1.1805 C.ar      1 <0>        -0.0858
     35 N7         -2.3445    8.1318   -1.6547 N.pl3     1 <0>        -0.8514
     36 H3         -3.1874   11.4622    1.0398 H         1 <0>         0.0495
     37 H4         -4.7775   12.1776    0.6081 H         1 <0>         0.0577
     38 H5         -3.2593   12.9685    0.0637 H         1 <0>         0.0679
     39 H6         -4.2624   10.2051   -0.8208 H         1 <0>         0.0748
     40 H7         -4.5723   11.3240   -3.0232 H         1 <0>         0.0590
     41 H8         -4.0650   12.8881   -2.3000 H         1 <0>         0.0639
     42 H9         -5.5832   12.0972   -1.7556 H         1 <0>         0.0668
     43 H10        -2.3629   10.4067   -2.4688 H         1 <0>         0.0932
     44 H11        -1.8247   11.8920   -1.6138 H         1 <0>         0.1161
     45 H12        -3.0838    6.3902    0.0831 H         1 <0>         0.0743
     46 H13        -2.1786    4.8431   -0.0333 H         1 <0>         0.0989
     47 H14        -2.3496    6.5797    2.4908 H         1 <0>         0.0708
     48 H15        -3.8680    4.7962    3.3346 H         1 <0>         0.0598
     49 H16        -3.7927    3.9767    1.7379 H         1 <0>         0.0586
     50 H17        -4.5543    5.5973    1.8806 H         1 <0>         0.0527
     51 H18        -1.3932    4.5533    3.5761 H         1 <0>         0.0512
     52 H19        -0.3001    5.1798    2.2957 H         1 <0>         0.0571
     53 H20        -1.3178    3.7338    1.9794 H         1 <0>         0.0573
     54 H21         1.3542    7.3628   -1.0870 H         1 <0>         0.1128
     55 H22         1.6539    7.2024    0.6768 H         1 <0>         0.1316
     56 H23         7.9568    5.5340   -1.4480 H         1 <0>         0.1341
     57 H24        10.3667    5.8347   -1.8371 H         1 <0>         0.1286
     58 H25        11.3522    8.0883   -1.7972 H         1 <0>         0.1255
     59 H26         9.9340   10.0542   -1.3785 H         1 <0>         0.1276
     60 H27         7.5201    9.7764   -0.9970 H         1 <0>         0.1297
     61 H28        -2.3608    7.0350   -1.7367 H         1 <0>         0.4528
     62 H29        -2.8790    8.7466   -2.3938 H         1 <0>         0.4318
@<TRIPOS>BOND
     1    1    2 1
     2    1   36 1
     3    1   37 1
     4    1   38 1
     5    2    3 1
     6    2    4 1
     7    2   39 1
     8    3   40 1
     9    3   41 1
    10    3   42 1
    11    4    5 1
    12    4   43 1
    13    4   44 1
    14    5   12 am
    15    5    6 1
    16    6    7 2
    17    6   35 1
    18    7    8 1
    19    7   14 1
    20    8    9 2
    21    8   10 am
    22   10   11 1
    23   10   12 am
    24   12   13 2
    25   14   15 1
    26   14   19 am
    27   15   16 1
    28   15   45 1
    29   15   46 1
    30   16   17 1
    31   16   18 1
    32   16   47 1
    33   17   48 1
    34   17   49 1
    35   17   50 1
    36   18   51 1
    37   18   52 1
    38   18   53 1
    39   19   20 2
    40   19   21 1
    41   21   54 1
    42   21   55 1
    43   21   22 1
    44   22   23 1
    45   23   24 2
    46   23   28 1
    47   24   26 1
    48   25   28 1
    49   26   29 1
    50   26   27 2
    51   27   28 1
    52   29   34 ar
    53   29   30 ar
    54   30   31 ar
    55   30   56 1
    56   31   32 ar
    57   31   57 1
    58   32   33 ar
    59   32   58 1
    60   33   34 ar
    61   33   59 1
    62   34   60 1
    63   35   61 1
    64   35   62 1
@<TRIPOS>MOLECULE
ZINC25518591
   53    56     0     0     0
SMALL
USER_CHARGES

@<TRIPOS>ATOM
      1 C1          0.1131    1.1576   -0.7549 C.ar      1 <0>        -0.0588
      2 C2          1.2982    1.8678   -0.7569 C.ar      1 <0>        -0.1554
      3 C3          2.3830    1.4122   -0.0189 C.ar      1 <0>         0.1865
      4 C4          2.2751    0.2425    0.7204 C.ar      1 <0>        -0.1748
      5 C5          1.0847   -0.4671    0.7198 C.ar      1 <0>         0.1476
      6 C6          0.0038   -0.0070   -0.0195 C.ar      1 <0>        -0.2239
      7 O1          0.9759   -1.6130    1.4423 O.3       1 <0>        -0.2890
      8 C7         -0.2802   -2.2927    1.3955 C.3       1 <0>         0.0397
      9 C8         -0.2131   -3.5318    2.2505 C.2       1 <0>         0.5191
     10 O2          0.8098   -3.8059    2.8418 O.2       1 <0>        -0.5170
     11 N1         -1.2897   -4.3355    2.3581 N.am      1 <0>        -0.8499
     12 N2          3.5834    2.1312   -0.0212 N.am      1 <0>        -0.6724
     13 C9          3.5635    3.4755   -0.1159 C.2       1 <0>         0.5217
     14 O3          2.5057    4.0688   -0.1028 O.2       1 <0>        -0.5146
     15 C10         4.8556    4.2414   -0.2382 C.3       1 <0>        -0.1222
     16 C11         4.5542    5.7387   -0.3291 C.3       1 <0>        -0.1004
     17 S1          6.1095    6.6607   -0.4763 S.3       1 <0>        -0.1504
     18 C12         5.5845    8.3944   -0.5723 C.3       1 <0>        -0.0647
     19 C13         6.7971    9.2802   -0.6990 C.2       1 <0>         0.4189
     20 N3          6.6336   10.6257   -0.7807 N.am      1 <0>        -0.6321
     21 H1          5.7383   10.9980   -0.7558 H         1 <0>         0.4215
     22 C14         7.6896   11.4536   -0.8951 C.2       1 <0>         0.5572
     23 O4          7.5280   12.6596   -0.9673 O.2       1 <0>        -0.5168
     24 C15         9.0065   10.8904   -0.9298 C.2       1 <0>        -0.2332
     25 C16        10.2915   11.5956   -1.0483 C.2       1 <0>        -0.0761
     26 C17        11.4014   10.8376   -1.0596 C.2       1 <0>        -0.1955
     27 S2         10.8170    9.1647   -0.9126 S.3       1 <0>         0.1978
     28 C18         9.0761    9.4940   -0.8392 C.2       1 <0>         0.0998
     29 N4          7.9861    8.7395   -0.7227 N.2       1 <0>        -0.4618
     30 C19        12.6525   11.6641   -1.1896 C.3       1 <0>        -0.0333
     31 C20        12.1588   13.0382   -1.6934 C.3       1 <0>        -0.1175
     32 C21        10.7108   13.0636   -1.1658 C.3       1 <0>        -0.0630
     33 H2         -0.7309    1.5157   -1.3258 H         1 <0>         0.1311
     34 H3          1.3811    2.7777   -1.3328 H         1 <0>         0.1367
     35 H4          3.1173   -0.1141    1.2948 H         1 <0>         0.1371
     36 H5         -0.9240   -0.5599   -0.0197 H         1 <0>         0.1294
     37 H6         -1.0637   -1.6344    1.7707 H         1 <0>         0.0965
     38 H7         -0.5034   -2.5732    0.3661 H         1 <0>         0.0967
     39 H8         -2.1077   -4.1163    1.8852 H         1 <0>         0.4039
     40 H9         -1.2464   -5.1331    2.9084 H         1 <0>         0.4105
     41 H10         4.4298    1.6622    0.0454 H         1 <0>         0.4156
     42 H11         5.4766    4.0483    0.6365 H         1 <0>         0.1102
     43 H12         5.3837    3.9219   -1.1366 H         1 <0>         0.1112
     44 H13         3.9332    5.9319   -1.2038 H         1 <0>         0.0927
     45 H14         4.0260    6.0582    0.5692 H         1 <0>         0.0928
     46 H15         4.9418    8.5318   -1.4419 H         1 <0>         0.1238
     47 H16         5.0347    8.6581    0.3311 H         1 <0>         0.1237
     48 H17        13.1423   11.7676   -0.2214 H         1 <0>         0.0895
     49 H18        13.3316   11.2149   -1.9143 H         1 <0>         0.0836
     50 H19        12.7465   13.8471   -1.2594 H         1 <0>         0.0869
     51 H20        12.1783   13.0845   -2.7823 H         1 <0>         0.0782
     52 H21        10.0624   13.5858   -1.8694 H         1 <0>         0.0800
     53 H22        10.6739   13.5457   -0.1889 H         1 <0>         0.0829
@<TRIPOS>BOND
     1    1    6 ar
     2    1    2 ar
     3    1   33 1
     4    2    3 ar
     5    2   34 1
     6    3    4 ar
     7    3   12 1
     8    4    5 ar
     9    4   35 1
    10    5    6 ar
    11    5    7 1
    12    6   36 1
    13    7    8 1
    14    8    9 1
    15    8   37 1
    16    8   38 1
    17    9   10 2
    18    9   11 am
    19   11   39 1
    20   11   40 1
    21   12   13 am
    22   12   41 1
    23   13   14 2
    24   13   15 1
    25   15   16 1
    26   15   42 1
    27   15   43 1
    28   16   17 1
    29   16   44 1
    30   16   45 1
    31   17   18 1
    32   18   19 1
    33   18   46 1
    34   18   47 1
    35   19   29 2
    36   19   20 1
    37   20   21 1
    38   20   22 am
    39   22   23 2
    40   22   24 1
    41   24   28 2
    42   24   25 1
    43   25   32 1
    44   25   26 2
    45   26   27 1
    46   26   30 1
    47   27   28 1
    48   28   29 1
    49   30   31 1
    50   30   48 1
    51   30   49 1
    52   31   32 1
    53   31   50 1
    54   31   51 1
    55   32   52 1
    56   32   53 1
@<TRIPOS>MOLECULE
ZINC59829900
   60    62     0     0     0
SMALL
USER_CHARGES

@<TRIPOS>ATOM
      1 C1         -1.2645    1.1837    0.1821 C.3       1 <0>        -0.1183
      2 C2         -0.5844   -0.1576    0.0847 C.ar      1 <0>        -0.0654
      3 C3         -0.5708   -0.8395   -1.1162 C.ar      1 <0>        -0.1370
      4 C4          0.0547   -2.0742   -1.2059 C.ar      1 <0>         0.1218
      5 C5          0.6676   -2.6249   -0.0895 C.ar      1 <0>        -0.1961
      6 C6          0.6551   -1.9440    1.1115 C.ar      1 <0>        -0.0728
      7 C7          0.0336   -0.7054    1.2007 C.ar      1 <0>         0.1012
      8 N1          0.0255   -0.0112    2.4178 N.am      1 <0>        -0.6603
      9 C8         -0.0560   -0.6893    3.5797 C.2       1 <0>         0.5373
     10 O1         -0.0401   -1.9021    3.5766 O.2       1 <0>        -0.5050
     11 C9         -0.1669    0.0595    4.8828 C.3       1 <0>        -0.1589
     12 S1         -0.2581   -1.1242    6.2544 S.3       1 <0>         0.1109
     13 C10        -0.3826   -0.1070    7.6877 C.2       1 <0>         0.2131
     14 N2         -0.4065    1.2042    7.7027 N.2       1 <0>        -0.3074
     15 N3         -0.5131    1.6202    9.0363 N.2       1 <0>        -0.3073
     16 C11        -0.5509    0.5499    9.7926 C.2       1 <0>         0.4713
     17 N4         -0.4772   -0.5458    8.9781 N.pl3     1 <0>        -0.3470
     18 N5         -0.4925   -1.8502    9.3835 N.3       1 <0>        -0.5885
     19 N6         -0.6538    0.5322   11.1759 N.pl3     1 <0>        -0.5588
     20 N7         -0.7283    1.7363   11.8883 N.2       1 <0>        -0.2136
     21 C12        -0.8245    1.7197   13.1823 C.2       1 <0>         0.1557
     22 C13        -0.9030    2.9884   13.9329 C.2       1 <0>        -0.2125
     23 C14        -0.8913    4.2881   13.3828 C.2       1 <0>         0.1227
     24 N8         -0.9774    5.1455   14.3639 N.2       1 <0>        -0.2982
     25 N9         -1.0475    4.4436   15.5727 N.pl3     1 <0>        -0.3566
     26 C15        -1.0074    3.1234   15.3001 C.2       1 <0>         0.1282
     27 C16        -1.0625    2.0025   16.3059 C.3       1 <0>        -0.0998
     28 C17        -1.1525    5.0409   16.9063 C.3       1 <0>         0.1584
     29 C18        -2.6056    5.2165   17.2651 C.2       1 <0>        -0.1813
     30 C19        -3.0737    4.6991   18.3738 C.2       1 <0>        -0.1623
     31 C20        -0.7954    4.6275   11.9176 C.3       1 <0>        -0.0775
     32 O2          0.0670   -2.7455   -2.3882 O.3       1 <0>        -0.3174
     33 C21         0.7291   -4.0117   -2.4086 C.3       1 <0>         0.0264
     34 H1         -0.5492    1.9717   -0.0532 H         1 <0>         0.0765
     35 H2         -2.0936    1.2227   -0.5244 H         1 <0>         0.0755
     36 H3         -1.6427    1.3266    1.1944 H         1 <0>         0.0678
     37 H4         -1.0476   -0.4115   -1.9855 H         1 <0>         0.1358
     38 H5          1.1541   -3.5865   -0.1599 H         1 <0>         0.1321
     39 H6          1.1319   -2.3729    1.9805 H         1 <0>         0.1440
     40 H7          0.0786    0.9573    2.4241 H         1 <0>         0.4143
     41 H8          0.7076    0.6973    5.0109 H         1 <0>         0.1298
     42 H9         -1.0668    0.6744    4.8731 H         1 <0>         0.1308
     43 H10         0.4425   -2.1837    9.5640 H         1 <0>         0.3646
     44 H11        -1.0819   -1.9701   10.1936 H         1 <0>         0.3697
     45 H12        -0.6741   -0.3138   11.6499 H         1 <0>         0.3874
     46 H13        -0.8471    0.7777   13.7100 H         1 <0>         0.1168
     47 H14        -0.0511    1.7508   16.6251 H         1 <0>         0.0875
     48 H15        -1.6482    2.3176   17.1694 H         1 <0>         0.0778
     49 H16        -1.5279    1.1284   15.8506 H         1 <0>         0.0882
     50 H17        -0.6746    4.3872   17.6359 H         1 <0>         0.0997
     51 H18        -0.6576    6.0120   16.9094 H         1 <0>         0.1085
     52 H19        -3.2611    5.7690   16.6081 H         1 <0>         0.1182
     53 H20        -2.4183    4.1467   19.0307 H         1 <0>         0.1019
     54 H21        -4.1151    4.8250   18.6309 H         1 <0>         0.1074
     55 H22        -1.7972    4.6881   11.4924 H         1 <0>         0.0785
     56 H23        -0.2917    5.5869   11.7991 H         1 <0>         0.0692
     57 H24        -0.2279    3.8530   11.4016 H         1 <0>         0.0998
     58 H25         1.7762   -3.8785   -2.1365 H         1 <0>         0.0562
     59 H26         0.2510   -4.6832   -1.6955 H         1 <0>         0.0565
     60 H27         0.6652   -4.4391   -3.4093 H         1 <0>         0.1009
@<TRIPOS>BOND
     1    1    2 1
     2    1   34 1
     3    1   35 1
     4    1   36 1
     5    2    7 ar
     6    2    3 ar
     7    3    4 ar
     8    3   37 1
     9    4    5 ar
    10    4   32 1
    11    5    6 ar
    12    5   38 1
    13    6    7 ar
    14    6   39 1
    15    7    8 1
    16    8    9 am
    17    8   40 1
    18    9   10 2
    19    9   11 1
    20   11   12 1
    21   11   41 1
    22   11   42 1
    23   12   13 1
    24   13   17 1
    25   13   14 2
    26   14   15 1
    27   15   16 2
    28   16   17 1
    29   16   19 1
    30   17   18 1
    31   18   43 1
    32   18   44 1
    33   19   20 1
    34   19   45 1
    35   20   21 2
    36   21   22 1
    37   21   46 1
    38   22   26 2
    39   22   23 1
    40   23   24 2
    41   23   31 1
    42   24   25 1
    43   25   26 1
    44   25   28 1
    45   26   27 1
    46   27   47 1
    47   27   48 1
    48   27   49 1
    49   28   29 1
    50   28   50 1
    51   28   51 1
    52   29   30 2
    53   29   52 1
    54   30   53 1
    55   30   54 1
    56   31   55 1
    57   31   56 1
    58   31   57 1
    59   32   33 1
    60   33   58 1
    61   33   59 1
    62   33   60 1
@<TRIPOS>MOLECULE
ZINC03200142
   44    47     0     0     0
SMALL
USER_CHARGES
N-[2-amino-3-(1H-benzoimidazol-2-yl)-4-oxo-5H-pyrrol-1-yl]-3-methoxy-benzamide
@<TRIPOS>ATOM
      1 C1        -11.0748    0.9698   -3.2762 C.3       1 <0>         0.0242
      2 O1         -9.6544    1.0997   -3.3623 O.3       1 <0>        -0.3117
      3 C2         -8.9988    1.4688   -2.2304 C.ar      1 <0>         0.1266
      4 C3         -9.7101    1.7005   -1.0607 C.ar      1 <0>        -0.1753
      5 C4         -9.0486    2.0762    0.0936 C.ar      1 <0>        -0.0813
      6 C5         -7.6758    2.2178    0.0923 C.ar      1 <0>        -0.1232
      7 C6         -6.9528    1.9921   -1.0799 C.ar      1 <0>        -0.0957
      8 C7         -7.6218    1.6130   -2.2442 C.ar      1 <0>        -0.0857
      9 C8         -5.4825    2.1483   -1.0865 C.2       1 <0>         0.5581
     10 O2         -4.8545    1.9464   -2.1074 O.2       1 <0>        -0.4943
     11 N1         -4.8387    2.5146    0.0395 N.am      1 <0>        -0.5062
     12 N2         -3.4456    2.6627    0.0332 N.pl3     1 <0>        -0.4055
     13 C9         -2.7130    3.9364    0.0356 C.3       1 <0>         0.0784
     14 C10        -1.2500    3.5467    0.0264 C.2       1 <0>         0.4196
     15 O3         -0.2913    4.2940    0.0252 O.2       1 <0>        -0.4829
     16 C11        -1.2308    2.1406    0.0197 C.2       1 <0>        -0.3951
     17 C12        -2.5357    1.6534    0.0184 C.2       1 <0>         0.5809
     18 N3         -2.8596    0.3293    0.0075 N.pl3     1 <0>        -0.7996
     19 C13        -0.0157    1.3096    0.0092 C.2       1 <0>         0.4169
     20 N4          1.2679    1.7892   -0.0004 N.pl3     1 <0>        -0.5980
     21 H1          1.5422    2.7508    0.0022 H         1 <0>         0.4352
     22 C14         2.1139    0.6934   -0.0144 C.ar      1 <0>         0.0417
     23 C15         3.4927    0.5449   -0.0288 C.ar      1 <0>        -0.1075
     24 C16         4.0475   -0.7181   -0.0413 C.ar      1 <0>        -0.1132
     25 C17         3.2353   -1.8428   -0.0395 C.ar      1 <0>        -0.1255
     26 C18         1.8648   -1.7150   -0.0254 C.ar      1 <0>        -0.0790
     27 C19         1.2861   -0.4422   -0.0126 C.ar      1 <0>         0.0652
     28 N5          0.0021   -0.0041    0.0020 N.2       1 <0>        -0.5433
     29 H2        -11.3261    0.2137   -2.5324 H         1 <0>         0.0590
     30 H3        -11.5100    1.9255   -2.9841 H         1 <0>         0.0590
     31 H4        -11.4719    0.6711   -4.2464 H         1 <0>         0.1058
     32 H5        -10.7841    1.5866   -1.0526 H         1 <0>         0.1379
     33 H6         -9.6074    2.2547    1.0004 H         1 <0>         0.1379
     34 H7         -7.1616    2.5067    0.9971 H         1 <0>         0.1294
     35 H8         -7.0674    1.4330   -3.1533 H         1 <0>         0.1481
     36 H9         -5.3400    2.6758    0.8542 H         1 <0>         0.4269
     37 H10        -2.9583    4.4605    0.8512 H         1 <0>         0.1077
     38 H11        -2.9564    4.5151   -0.8554 H         1 <0>         0.1167
     39 H12        -2.1588   -0.3414   -0.0000 H         1 <0>         0.4429
     40 H13        -3.7908    0.0578    0.0072 H         1 <0>         0.4041
     41 H14         4.1308    1.4163   -0.0306 H         1 <0>         0.1207
     42 H15         5.1214   -0.8321   -0.0528 H         1 <0>         0.1275
     43 H16         3.6817   -2.8261   -0.0490 H         1 <0>         0.1269
     44 H17         1.2386   -2.5949   -0.0238 H         1 <0>         0.1258
@<TRIPOS>BOND
     1    1    2 1
     2    1   29 1
     3    1   30 1
     4    1   31 1
     5    2    3 1
     6    3    8 ar
     7    3    4 ar
     8    4    5 ar
     9    4   32 1
    10    5    6 ar
    11    5   33 1
    12    6    7 ar
    13    6   34 1
    14    7    8 ar
    15    7    9 1
    16    8   35 1
    17    9   10 2
    18    9   11 am
    19   11   12 1
    20   11   36 1
    21   12   17 1
    22   12   13 1
    23   13   14 1
    24   13   37 1
    25   13   38 1
    26   14   15 2
    27   14   16 1
    28   16   17 2
    29   16   19 1
    30   17   18 1
    31   18   39 1
    32   18   40 1
    33   19   28 2
    34   19   20 1
    35   20   21 1
    36   20   22 1
    37   22   27 ar
    38   22   23 ar
    39   23   24 ar
    40   23   41 1
    41   24   25 ar
    42   24   42 1
    43   25   26 ar
    44   25   43 1
    45   26   27 ar
    46   26   44 1
    47   27   28 1
@<TRIPOS>MOLECULE
ZINC16553864
   40    41     0     0     0
SMALL
USER_CHARGES
[(1S)-2-[(3-carbamoyl-2-thienyl)amino]-1-methyl-2-oxo-ethyl] 3-methyl-5-methylamino-isothiazole-4-carboxylate
@<TRIPOS>ATOM
      1 C1         -0.7092    0.0149    4.3932 C.3       1 <0>        -0.0985
      2 C2         -1.9604    0.8311    4.1943 C.2       1 <0>         0.1906
      3 C3         -2.3876    1.1698    2.9116 C.2       1 <0>        -0.3255
      4 C4         -3.5598    1.9339    2.8567 C.2       1 <0>         0.1849
      5 S1         -3.9587    2.1010    4.5343 S.3       1 <0>         0.2385
      6 N1         -2.6593    1.2303    5.2188 N.2       1 <0>        -0.4553
      7 N2         -4.2257    2.4248    1.7525 N.pl3     1 <0>        -0.6730
      8 C5         -5.4500    3.2107    1.9249 C.3       1 <0>         0.0752
      9 C6         -1.6592    0.7611    1.7075 C.2       1 <0>         0.5532
     10 O1         -1.9267   -0.2933    1.1636 O.2       1 <0>        -0.4885
     11 O2         -0.6923    1.5541    1.2026 O.3       1 <0>        -0.3191
     12 C7         -0.0127    1.0858    0.0080 C.3       1 <0>         0.0751
     13 H1          0.0021   -0.0041    0.0020 H         1 <0>         0.1232
     14 C8         -0.7527    1.5927   -1.2315 C.3       1 <0>        -0.1717
     15 C9          1.4011    1.6074   -0.0027 C.2       1 <0>         0.5096
     16 O3          1.7969    2.3051    0.9069 O.2       1 <0>        -0.4723
     17 N3          2.2256    1.2986   -1.0231 N.am      1 <0>        -0.6061
     18 C10         3.5265    1.7786   -1.0329 C.2       1 <0>         0.1169
     19 C11         4.5177    1.5669   -1.9840 C.2       1 <0>        -0.2606
     20 C12         5.7942    2.1961   -1.7424 C.2       1 <0>        -0.1071
     21 C13         5.9177    2.9222   -0.6168 C.2       1 <0>        -0.2347
     22 S2          4.3122    2.7806    0.1404 S.3       1 <0>         0.2324
     23 C14         4.2773    0.7478   -3.1761 C.2       1 <0>         0.5908
     24 O4          3.1883    0.2335   -3.3517 O.2       1 <0>        -0.5645
     25 N4          5.2624    0.5643   -4.0774 N.am      1 <0>        -0.8473
     26 H2          0.1486    0.6812    4.4838 H         1 <0>         0.0929
     27 H3         -0.8044   -0.5805    5.3012 H         1 <0>         0.0892
     28 H4         -0.5670   -0.6463    3.5384 H         1 <0>         0.0758
     29 H5         -3.8833    2.2496    0.8621 H         1 <0>         0.4136
     30 H6         -6.1994    2.6080    2.4380 H         1 <0>         0.0717
     31 H7         -5.2310    4.0993    2.5169 H         1 <0>         0.0722
     32 H8         -5.8305    3.5095    0.9482 H         1 <0>         0.0940
     33 H9         -0.7675    2.6825   -1.2255 H         1 <0>         0.0786
     34 H10        -0.2425    1.2411   -2.1283 H         1 <0>         0.0880
     35 H11        -1.7753    1.2154   -1.2238 H         1 <0>         0.0821
     36 H12         1.9090    0.7406   -1.7506 H         1 <0>         0.4353
     37 H13         6.6163    2.0851   -2.4339 H         1 <0>         0.1415
     38 H14         6.7823    3.4615   -0.2588 H         1 <0>         0.1912
     39 H15         6.1303    0.9741   -3.9375 H         1 <0>         0.4023
     40 H16         5.1034    0.0223   -4.8661 H         1 <0>         0.4055
@<TRIPOS>BOND
     1    1    2 1
     2    1   26 1
     3    1   27 1
     4    1   28 1
     5    2    6 2
     6    2    3 1
     7    3    4 2
     8    3    9 1
     9    4    5 1
    10    4    7 1
    11    5    6 1
    12    7    8 1
    13    7   29 1
    14    8   30 1
    15    8   31 1
    16    8   32 1
    17    9   10 2
    18    9   11 1
    19   11   12 1
    20   12   13 1
    21   12   14 1
    22   12   15 1
    23   14   33 1
    24   14   34 1
    25   14   35 1
    26   15   16 2
    27   15   17 am
    28   17   18 1
    29   17   36 1
    30   18   22 1
    31   18   19 2
    32   19   20 1
    33   19   23 1
    34   20   21 2
    35   20   37 1
    36   21   22 1
    37   21   38 1
    38   23   24 2
    39   23   25 am
    40   25   39 1
    41   25   40 1
@<TRIPOS>MOLECULE
ZINC41740053
   44    45     0     0     0
SMALL
USER_CHARGES

@<TRIPOS>ATOM
      1 C1         -0.3704    1.1501    1.9752 C.3       1 <0>        -0.1735
      2 C2         -0.2575   -0.1882    1.2915 C.2       1 <0>         0.5140
      3 O1          0.8013   -0.5379    0.8142 O.2       1 <0>        -0.5231
      4 N1         -1.3330   -0.9964    1.2105 N.am      1 <0>        -0.6722
      5 C3         -1.2551   -2.1957    0.4917 C.ar      1 <0>         0.1357
      6 C4         -0.0733   -2.9216    0.4782 C.ar      1 <0>        -0.1205
      7 C5          0.0001   -4.1102   -0.2350 C.ar      1 <0>         0.1522
      8 C6         -1.1097   -4.5700   -0.9335 C.ar      1 <0>        -0.1133
      9 C7         -2.2859   -3.8454   -0.9194 C.ar      1 <0>        -0.1102
     10 C8         -2.3644   -2.6632   -0.2050 C.ar      1 <0>         0.0599
     11 F1         -3.5177   -1.9598   -0.1885 F         1 <0>        -0.1351
     12 N2          1.1900   -4.8440   -0.2509 N.am      1 <0>        -0.6374
     13 C9          1.1580   -6.1751   -0.4594 C.2       1 <0>         0.5100
     14 O2          0.0930   -6.7534   -0.5274 O.2       1 <0>        -0.4925
     15 C10         2.4330   -6.9387   -0.6068 C.2       1 <0>         0.5117
     16 O3          3.4979   -6.3605   -0.5388 O.2       1 <0>        -0.5106
     17 N3          2.4011   -8.2698   -0.8153 N.am      1 <0>        -0.6926
     18 C11         3.6518   -9.0188   -0.9598 C.3       1 <0>         0.0877
     19 C12         3.3367  -10.4989   -1.1856 C.3       1 <0>         0.1411
     20 H1          2.7031  -10.8630   -0.3769 H         1 <0>         0.1243
     21 C13         4.6206  -11.2875   -1.2117 C.ar      1 <0>        -0.1032
     22 C14         5.3956  -11.3076   -2.3565 C.ar      1 <0>        -0.0890
     23 C15         6.5735  -12.0301   -2.3829 C.ar      1 <0>        -0.1192
     24 C16         6.9787  -12.7343   -1.2623 C.ar      1 <0>         0.0749
     25 C17         6.2018  -12.7139   -0.1141 C.ar      1 <0>         0.0731
     26 C18         5.0251  -11.9854   -0.0894 C.ar      1 <0>        -0.1107
     27 F2          6.5950  -13.4008    0.9807 F         1 <0>        -0.1237
     28 F3          8.1297  -13.4412   -1.2875 F         1 <0>        -0.1241
     29 O4          2.6557  -10.6562   -2.4320 O.3       1 <0>        -0.5436
     30 H2          0.5938    1.6574    1.9422 H         1 <0>         0.0997
     31 H3         -1.1180    1.7570    1.4645 H         1 <0>         0.0945
     32 H4         -0.6686    1.0037    3.0133 H         1 <0>         0.0941
     33 H5         -2.1610   -0.7473    1.6501 H         1 <0>         0.4174
     34 H6          0.7883   -2.5625    1.0214 H         1 <0>         0.1556
     35 H7         -1.0525   -5.4948   -1.4884 H         1 <0>         0.1556
     36 H8         -3.1468   -4.2045   -1.4637 H         1 <0>         0.1476
     37 H9          2.0385   -4.3951   -0.1119 H         1 <0>         0.4273
     38 H10         1.5500   -8.7319   -0.8696 H         1 <0>         0.4198
     39 H11         4.2105   -8.6321   -1.8122 H         1 <0>         0.0845
     40 H12         4.2482   -8.9084   -0.0542 H         1 <0>         0.0905
     41 H13         5.0800  -10.7583   -3.2312 H         1 <0>         0.1413
     42 H14         7.1776  -12.0455   -3.2780 H         1 <0>         0.1516
     43 H15         4.4209  -11.9656    0.8056 H         1 <0>         0.1508
     44 H16         3.1618  -10.3521   -3.1979 H         1 <0>         0.3799
@<TRIPOS>BOND
     1    1    2 1
     2    1   30 1
     3    1   31 1
     4    1   32 1
     5    2    3 2
     6    2    4 am
     7    4    5 1
     8    4   33 1
     9    5   10 ar
    10    5    6 ar
    11    6    7 ar
    12    6   34 1
    13    7    8 ar
    14    7   12 1
    15    8    9 ar
    16    8   35 1
    17    9   10 ar
    18    9   36 1
    19   10   11 1
    20   12   13 am
    21   12   37 1
    22   13   14 2
    23   13   15 1
    24   15   16 2
    25   15   17 am
    26   17   18 1
    27   17   38 1
    28   18   19 1
    29   18   39 1
    30   18   40 1
    31   19   20 1
    32   19   21 1
    33   19   29 1
    34   21   26 ar
    35   21   22 ar
    36   22   23 ar
    37   22   41 1
    38   23   24 ar
    39   23   42 1
    40   24   25 ar
    41   24   28 1
    42   25   26 ar
    43   25   27 1
    44   26   43 1
    45   29   44 1
@<TRIPOS>MOLECULE
ZINC58837027
   47    48     0     0     0
SMALL
USER_CHARGES

@<TRIPOS>ATOM
      1 C1         -0.0187    1.5258    0.0104 C.3       1 <0>        -0.1489
      2 C2          0.0021   -0.0041    0.0020 C.3       1 <0>        -0.0932
      3 C3         -1.4351   -0.5325    0.0036 C.3       1 <0>        -0.1104
      4 C4         -1.4068   -2.0412   -0.2772 C.3       1 <0>        -0.0460
      5 C5         -0.3791   -2.6712    0.6161 C.2       1 <0>        -0.1842
      6 C6          0.5990   -2.0270    1.3154 C.2       1 <0>        -0.1484
      7 C7          1.4408   -2.8187    2.0823 C.2       1 <0>        -0.0434
      8 C8          1.2063   -4.1813    2.0618 C.2       1 <0>        -0.2684
      9 S1         -0.1923   -4.2942    0.9615 S.3       1 <0>         0.2165
     10 C9          1.9208   -5.2528    2.7617 C.2       1 <0>         0.6147
     11 O1          2.8652   -4.9855    3.4813 O.2       1 <0>        -0.5225
     12 N1          1.5320   -6.5341    2.6083 N.am      1 <0>        -0.5199
     13 N2          2.2149   -7.5583    3.2773 N.am      1 <0>        -0.5115
     14 C10         1.8260   -8.8396    3.1239 C.2       1 <0>         0.5117
     15 O2          0.8849   -9.1060    2.4067 O.2       1 <0>        -0.5311
     16 C11         2.5606   -9.9413    3.8434 C.3       1 <0>         0.1126
     17 N3          1.9497  -11.2315    3.5143 N.am      1 <0>        -0.7144
     18 C12         2.4443  -12.3666    4.0467 C.2       1 <0>         0.5167
     19 O3          3.3950  -12.3199    4.7983 O.2       1 <0>        -0.5330
     20 C13         1.8159  -13.6939    3.7082 C.3       1 <0>         0.0999
     21 N4          2.5300  -14.7648    4.4077 N.am      1 <0>        -0.7215
     22 C14         2.1412  -16.0461    4.2543 C.2       1 <0>         0.5142
     23 O4          1.2001  -16.3125    3.5371 O.2       1 <0>        -0.5464
     24 C15         2.8757  -17.1478    4.9738 C.3       1 <0>        -0.1701
     25 C16         0.7418   -0.5091    1.2412 C.3       1 <0>        -0.0524
     26 H1          1.0039    1.9031    0.0027 H         1 <0>         0.0572
     27 H2         -0.5459    1.8868   -0.8726 H         1 <0>         0.0581
     28 H3         -0.5289    1.8773    0.9072 H         1 <0>         0.0567
     29 H4          0.5147   -0.3545   -0.8938 H         1 <0>         0.0736
     30 H5         -1.8903   -0.3505    0.9772 H         1 <0>         0.0696
     31 H6         -2.0111   -0.0273   -0.7716 H         1 <0>         0.0765
     32 H7         -2.3865   -2.4711   -0.0686 H         1 <0>         0.0867
     33 H8         -1.1416   -2.2148   -1.3201 H         1 <0>         0.0894
     34 H9          2.2416   -2.3912    2.6675 H         1 <0>         0.1493
     35 H10         0.7793   -6.7472    2.0348 H         1 <0>         0.4328
     36 H11         2.9676   -7.3453    3.8508 H         1 <0>         0.4384
     37 H12         3.6055   -9.9443    3.5331 H         1 <0>         0.1118
     38 H13         2.5015   -9.7751    4.9191 H         1 <0>         0.1118
     39 H14         1.1894  -11.2689    2.9132 H         1 <0>         0.4178
     40 H15         0.7710  -13.6909    4.0185 H         1 <0>         0.1037
     41 H16         1.8750  -13.8600    2.6325 H         1 <0>         0.1037
     42 H17         3.2827  -14.5518    4.9812 H         1 <0>         0.4134
     43 H18         3.6844  -16.7190    5.5657 H         1 <0>         0.0783
     44 H19         2.1851  -17.6761    5.6311 H         1 <0>         0.0978
     45 H20         3.2891  -17.8452    4.2452 H         1 <0>         0.0978
     46 H21         1.7968   -0.2445    1.1699 H         1 <0>         0.0770
     47 H22         0.3095   -0.0574    2.1341 H         1 <0>         0.0778
@<TRIPOS>BOND
     1    1    2 1
     2    1   26 1
     3    1   27 1
     4    1   28 1
     5    2   25 1
     6    2    3 1
     7    2   29 1
     8    3    4 1
     9    3   30 1
    10    3   31 1
    11    4    5 1
    12    4   32 1
    13    4   33 1
    14    5    9 1
    15    5    6 2
    16    6    7 1
    17    6   25 1
    18    7    8 2
    19    7   34 1
    20    8    9 1
    21    8   10 1
    22   10   11 2
    23   10   12 am
    24   12   13 1
    25   12   35 1
    26   13   14 am
    27   13   36 1
    28   14   15 2
    29   14   16 1
    30   16   17 1
    31   16   37 1
    32   16   38 1
    33   17   18 am
    34   17   39 1
    35   18   19 2
    36   18   20 1
    37   20   21 1
    38   20   40 1
    39   20   41 1
    40   21   22 am
    41   21   42 1
    42   22   23 2
    43   22   24 1
    44   24   43 1
    45   24   44 1
    46   24   45 1
    47   25   46 1
    48   25   47 1
@<TRIPOS>MOLECULE
ZINC63456351
   57    58     0     0     0
SMALL
USER_CHARGES

@<TRIPOS>ATOM
      1 C1         -1.1708    1.5015    0.5362 C.3       1 <0>        -0.1611
      2 C2         -0.6977    0.2085   -0.1309 C.3       1 <0>         0.1324
      3 C3          0.1417   -0.5995    0.8607 C.3       1 <0>        -0.1616
      4 N1         -1.8603   -0.5816   -0.5440 N.am      1 <0>        -0.6036
      5 C4         -2.8312   -1.0337    0.4556 C.3       1 <0>         0.1309
      6 C5         -4.2386   -0.6156    0.0251 C.3       1 <0>        -0.1861
      7 C6         -2.7665   -2.5575    0.5766 C.3       1 <0>        -0.1794
      8 C7         -2.0365   -0.8924   -1.8435 C.2       1 <0>         0.5235
      9 O1         -1.1843   -0.6044   -2.6569 O.2       1 <0>        -0.5233
     10 C8         -3.2926   -1.5978   -2.2859 C.3       1 <0>         0.0446
     11 O2         -3.1806   -1.9491   -3.6665 O.3       1 <0>        -0.2120
     12 N2         -4.3149   -2.6205   -4.1838 N.2       1 <0>        -0.4438
     13 C9         -4.3375   -2.9950   -5.4321 C.2       1 <0>         0.4795
     14 C10        -3.1438   -2.8106   -6.2793 C.2       1 <0>        -0.3521
     15 C11        -2.5978   -1.6049   -6.6290 C.2       1 <0>         0.2836
     16 C12        -1.4092   -1.9238   -7.4893 C.3       1 <0>         0.1816
     17 C13        -0.1169   -1.3289   -6.9031 C.3       1 <0>        -0.1182
     18 C14         0.8279   -1.2089   -8.1190 C.3       1 <0>        -0.1263
     19 C15        -0.0673   -1.1675   -9.3707 C.3       1 <0>        -0.1265
     20 C16        -1.5266   -1.2639   -8.8743 C.3       1 <0>        -0.1226
     21 N3         -1.3317   -3.3752   -7.5928 N.am      1 <0>        -0.6100
     22 C17        -2.3513   -3.8879   -6.8744 C.2       1 <0>         0.5772
     23 O3         -2.5817   -5.0757   -6.7427 O.2       1 <0>        -0.5380
     24 C18        -0.3264   -4.1383   -8.3367 C.3       1 <0>         0.1047
     25 N4         -3.0416   -0.3702   -6.2708 N.pl3     1 <0>        -0.7990
     26 N5         -5.4819   -3.5660   -5.9631 N.pl3     1 <0>        -0.8234
     27 H1         -0.3058    2.0893    0.8435 H         1 <0>         0.0693
     28 H2         -1.7688    2.0772   -0.1703 H         1 <0>         0.0582
     29 H3         -1.7747    1.2593    1.4107 H         1 <0>         0.0590
     30 H4         -0.0938    0.4507   -1.0054 H         1 <0>         0.1011
     31 H5          0.4787   -1.5207    0.3855 H         1 <0>         0.0593
     32 H6          1.0067   -0.0117    1.1681 H         1 <0>         0.0686
     33 H7         -0.4622   -0.8417    1.7352 H         1 <0>         0.0587
     34 H8         -2.5971   -0.5824    1.4197 H         1 <0>         0.0963
     35 H9         -4.6297   -1.3391   -0.6902 H         1 <0>         0.0760
     36 H10        -4.8899   -0.5794    0.8983 H         1 <0>         0.0723
     37 H11        -4.1988    0.3696   -0.4396 H         1 <0>         0.0644
     38 H12        -1.7484   -2.8596    0.8223 H         1 <0>         0.0636
     39 H13        -3.4437   -2.8885    1.3639 H         1 <0>         0.0731
     40 H14        -3.0613   -3.0100   -0.3702 H         1 <0>         0.0672
     41 H15        -3.4308   -2.5008   -1.6912 H         1 <0>         0.0886
     42 H16        -4.1484   -0.9370   -2.1474 H         1 <0>         0.0908
     43 H17        -0.3103   -0.3468   -6.4715 H         1 <0>         0.0821
     44 H18         0.3068   -1.9990   -6.1551 H         1 <0>         0.0816
     45 H19         1.4129   -0.2919   -8.0480 H         1 <0>         0.0724
     46 H20         1.4912   -2.0727   -8.1629 H         1 <0>         0.0697
     47 H21         0.0836   -0.2305   -9.9067 H         1 <0>         0.0728
     48 H22         0.1620   -2.0113  -10.0216 H         1 <0>         0.0716
     49 H23        -2.1177   -1.8871   -9.5453 H         1 <0>         0.0819
     50 H24        -1.9667   -0.2704   -8.7878 H         1 <0>         0.0804
     51 H25         0.5203   -4.3553   -7.6855 H         1 <0>         0.0557
     52 H26        -0.7650   -5.0730   -8.6861 H         1 <0>         0.0776
     53 H27         0.0134   -3.5543   -9.1921 H         1 <0>         0.0775
     54 H28        -3.7817   -0.2821   -5.6501 H         1 <0>         0.4152
     55 H29        -2.6179    0.4223   -6.6360 H         1 <0>         0.4075
     56 H30        -6.2893   -3.6212   -5.4284 H         1 <0>         0.4036
     57 H31        -5.4761   -3.9108   -6.8697 H         1 <0>         0.4127
@<TRIPOS>BOND
     1    1    2 1
     2    1   27 1
     3    1   28 1
     4    1   29 1
     5    2    3 1
     6    2    4 1
     7    2   30 1
     8    3   31 1
     9    3   32 1
    10    3   33 1
    11    4    5 1
    12    4    8 am
    13    5    6 1
    14    5    7 1
    15    5   34 1
    16    6   35 1
    17    6   36 1
    18    6   37 1
    19    7   38 1
    20    7   39 1
    21    7   40 1
    22    8    9 2
    23    8   10 1
    24   10   11 1
    25   10   41 1
    26   10   42 1
    27   11   12 1
    28   12   13 2
    29   13   14 1
    30   13   26 1
    31   14   22 1
    32   14   15 2
    33   15   16 1
    34   15   25 1
    35   16   20 1
    36   16   17 1
    37   16   21 1
    38   17   18 1
    39   17   43 1
    40   17   44 1
    41   18   19 1
    42   18   45 1
    43   18   46 1
    44   19   20 1
    45   19   47 1
    46   19   48 1
    47   20   49 1
    48   20   50 1
    49   21   22 am
    50   21   24 1
    51   22   23 2
    52   24   51 1
    53   24   52 1
    54   24   53 1
    55   25   54 1
    56   25   55 1
    57   26   56 1
    58   26   57 1
@<TRIPOS>MOLECULE
ZINC01616990
   20    19     0     0     0
SMALL
USER_CHARGES
(N,N-dimethylcarbamimidoyl)thiourea
@<TRIPOS>ATOM
      1 C1          3.1302    1.0314   -0.0223 C.3       1 <0>         0.0643
      2 N1          1.7025    0.7031   -0.0104 N.pl3     1 <0>        -0.5811
      3 C2          1.2728   -0.6974   -0.0138 C.3       1 <0>         0.0581
      4 C3          0.7660    1.7093    0.0039 C.cat     1 <0>         0.7025
      5 N2         -0.5791    1.4000    0.0152 N.pl3     1 <0>        -0.6279
      6 C4         -1.4973    2.3866    0.0236 C.2       1 <0>         0.5356
      7 S1         -0.9952    4.0233    0.0276 S.2       1 <0>        -0.3622
      8 N3         -2.8108    2.0846    0.0289 N.pl3     1 <0>        -0.7416
      9 H1          3.4941    1.1073    1.0024 H         1 <0>         0.0913
     10 H2          3.6787    0.2483   -0.5456 H         1 <0>         0.1111
     11 H3          3.2800    1.9829   -0.5325 H         1 <0>         0.0879
     12 H4          1.1565   -1.0393   -1.0423 H         1 <0>         0.0903
     13 H5          2.0219   -1.3085    0.4896 H         1 <0>         0.1130
     14 H6          0.3204   -0.7866    0.5086 H         1 <0>         0.0775
     15 H7          2.0700    3.2726   -0.0001 H         1 <0>         0.4070
     16 H8         -0.8635    0.4727    0.0129 H         1 <0>         0.4369
     17 H9         -3.0953    1.1573    0.0266 H         1 <0>         0.4222
     18 H10        -3.4717    2.7946    0.0350 H         1 <0>         0.4557
     19 N4          1.0889    2.9933    0.0078 N.pl3     1 <0>        -0.7350
     20 H11         0.3517    3.7080    0.0187 H         1 <0>         0.3945
@<TRIPOS>BOND
     1    1    2 1
     2    1    9 1
     3    1   10 1
     4    1   11 1
     5    2    3 1
     6    2    4 1
     7    3   12 1
     8    3   13 1
     9    3   14 1
    10    4    5 1
    11    4   19 2
    12    5    6 1
    13    5   16 1
    14    6    7 2
    15    6    8 1
    16    8   17 1
    17    8   18 1
    18   15   19 1
    19   19   20 1
@<TRIPOS>MOLECULE
ZINC37242855
   19    18     0     0     0
SMALL
USER_CHARGES

@<TRIPOS>ATOM
      1 C1         -0.0187    1.5258    0.0104 C.3       1 <0>        -0.0205
      2 C2          0.0021   -0.0041    0.0020 C.3       1 <0>         0.0899
      3 N1         -1.3723   -0.5112    0.0124 N.am      1 <0>        -0.7082
      4 C3         -1.6006   -1.8394    0.0075 C.2       1 <0>         0.5169
      5 O1         -0.6677   -2.6154   -0.0056 O.2       1 <0>        -0.4999
      6 C4         -3.0027   -2.3567    0.0181 C.2       1 <0>         0.5148
      7 O2         -3.9356   -1.5808    0.0311 O.2       1 <0>        -0.5159
      8 N2         -3.2310   -3.6850    0.0131 N.am      1 <0>        -0.8134
      9 N3          1.3595    2.0342    0.0000 N.4       1 <0>        -0.6311
     10 H1         -0.5459    1.8868   -0.8726 H         1 <0>         0.1446
     11 H2         -0.5289    1.8773    0.9072 H         1 <0>         0.1446
     12 H3          0.5123   -0.3556   -0.8948 H         1 <0>         0.0966
     13 H4          0.5293   -0.3651    0.8851 H         1 <0>         0.0966
     14 H5         -2.1181    0.1091    0.0229 H         1 <0>         0.4225
     15 H6         -2.4852   -4.3052    0.0027 H         1 <0>         0.4172
     16 H7         -4.1410   -4.0208    0.0200 H         1 <0>         0.4204
     17 H8          1.8475    1.7000    0.8174 H         1 <0>         0.4395
     18 H9          1.8318    1.7088   -0.8301 H         1 <0>         0.4395
     19 H10         1.3458    3.0431    0.0055 H         1 <0>         0.4459
@<TRIPOS>BOND
     1    1    2 1
     2    1    9 1
     3    1   10 1
     4    1   11 1
     5    2    3 1
     6    2   12 1
     7    2   13 1
     8    3    4 am
     9    3   14 1
    10    4    5 2
    11    4    6 1
    12    6    7 2
    13    6    8 am
    14    8   15 1
    15    8   16 1
    16    9   17 1
    17    9   18 1
    18    9   19 1
@<TRIPOS>MOLECULE
ZINC43516435
   20    20     0     0     0
SMALL
USER_CHARGES

@<TRIPOS>ATOM
      1 C1          0.1075    1.4826   -0.0205 C.3       1 <0>        -0.1303
      2 C2         -0.0049   -0.0201   -0.0096 C.2       1 <0>        -0.2257
      3 C3          0.0119   -0.6777    1.1411 C.2       1 <0>         0.2790
      4 N1          0.0167    0.0267    2.3487 N.4       1 <0>        -0.5699
      5 N2          0.0247   -2.0773    1.1472 N.pl3     1 <0>        -0.8501
      6 S1         -0.1586   -0.9030   -1.5267 S.3       1 <0>         0.2126
      7 C4          1.3776   -0.6203   -2.3420 C.2       1 <0>        -0.0219
      8 N3          2.4682    0.0052   -1.9161 N.2       1 <0>        -0.2716
      9 N4          3.4946    0.1183   -2.6404 N.2       1 <0>        -0.2775
     10 C5          3.5507   -0.3748   -3.8611 C.2       1 <0>         0.0734
     11 S2          1.9183   -1.1009   -3.9800 S.3       1 <0>         0.0608
     12 H1          1.0081    1.7835    0.5149 H         1 <0>         0.0843
     13 H2          0.1621    1.8355   -1.0503 H         1 <0>         0.0984
     14 H3         -0.7663    1.9159    0.4663 H         1 <0>         0.0876
     15 H4          0.0903    1.0154    2.1610 H         1 <0>         0.4560
     16 H5          0.0969   -2.5653    0.3120 H         1 <0>         0.4376
     17 H6         -0.0387   -2.5592    1.9866 H         1 <0>         0.4131
     18 H7          4.3540   -0.3516   -4.5825 H         1 <0>         0.2485
     19 H8         -0.8398   -0.1578    2.8491 H         1 <0>         0.4472
     20 H9          0.8031   -0.2691    2.9074 H         1 <0>         0.4484
@<TRIPOS>BOND
     1    1    2 1
     2    1   12 1
     3    1   13 1
     4    1   14 1
     5    2    3 2
     6    2    6 1
     7    3    4 1
     8    3    5 1
     9    4   15 1
    10    4   19 1
    11    4   20 1
    12    5   16 1
    13    5   17 1
    14    6    7 1
    15    7   11 1
    16    7    8 2
    17    8    9 1
    18    9   10 2
    19   10   11 1
    20   10   18 1
@<TRIPOS>MOLECULE
ZINC44476921
   30    31     0     0     0
SMALL
USER_CHARGES

@<TRIPOS>ATOM
      1 C1         -0.0184    1.5028    0.0103 C.3       1 <0>        -0.1134
      2 C2          0.0021   -0.0041    0.0020 C.ar      1 <0>        -0.1362
      3 C3          0.0058   -0.6899   -1.1953 C.ar      1 <0>         0.1327
      4 C4          0.0247   -2.0795   -1.2149 C.ar      1 <0>        -0.1666
      5 C5          0.0397   -2.7895   -0.0475 C.ar      1 <0>        -0.0398
      6 C6          0.0367   -2.1150    1.1747 C.ar      1 <0>        -0.1240
      7 C7          0.0230   -0.7084    1.2011 C.ar      1 <0>         0.1370
      8 N1          0.0300   -0.3269    2.5241 N.pl3     1 <0>        -0.5840
      9 H1          0.0197    0.5903    2.8397 H         1 <0>         0.4168
     10 C8          0.0530   -1.4350    3.3278 C.2       1 <0>         0.0501
     11 C9          0.0487   -2.5462    2.5751 C.2       1 <0>        -0.1467
     12 C10         0.0667   -1.4107    4.8345 C.3       1 <0>         0.1463
     13 H2          0.4911   -0.4677    5.1789 H         1 <0>         0.1172
     14 C11        -1.3637   -1.5483    5.3598 C.3       1 <0>        -0.0520
     15 N2         -1.3399   -1.6450    6.8255 N.4       1 <0>        -0.6374
     16 N3          0.8814   -2.5260    5.3348 N.3       1 <0>        -0.8296
     17 F1         -0.0093   -0.0044   -2.3594 F         1 <0>        -0.1278
     18 H3          1.0042    1.8801    0.0026 H         1 <0>         0.0764
     19 H4         -0.5455    1.8639   -0.8728 H         1 <0>         0.0788
     20 H5         -0.5286    1.8543    0.9071 H         1 <0>         0.0615
     21 H6          0.0270   -2.6022   -2.1600 H         1 <0>         0.1434
     22 H7          0.0536   -3.8692   -0.0702 H         1 <0>         0.1385
     23 H8          0.0639   -3.5649    2.9335 H         1 <0>         0.1506
     24 H9         -1.9454   -0.6757    5.0627 H         1 <0>         0.1445
     25 H10        -1.8187   -2.4472    4.9437 H         1 <0>         0.1437
     26 H11        -2.2832   -1.7357    7.1719 H         1 <0>         0.4447
     27 H12        -0.8015   -2.4528    7.1005 H         1 <0>         0.4282
     28 H13         0.9594   -2.4943    6.3403 H         1 <0>         0.3455
     29 H14         0.5082   -3.4122    5.0289 H         1 <0>         0.3640
     30 H15        -0.9187   -0.8130    7.2106 H         1 <0>         0.4375
@<TRIPOS>BOND
     1    1    2 1
     2    1   18 1
     3    1   19 1
     4    1   20 1
     5    2    7 ar
     6    2    3 ar
     7    3    4 ar
     8    3   17 1
     9    4    5 ar
    10    4   21 1
    11    5    6 ar
    12    5   22 1
    13    6   11 1
    14    6    7 ar
    15    7    8 1
    16    8    9 1
    17    8   10 1
    18   10   11 2
    19   10   12 1
    20   11   23 1
    21   12   13 1
    22   12   14 1
    23   12   16 1
    24   14   15 1
    25   14   24 1
    26   14   25 1
    27   15   26 1
    28   15   27 1
    29   15   30 1
    30   16   28 1
    31   16   29 1
@<TRIPOS>MOLECULE
ZINC49806183
   31    30     0     0     0
SMALL
USER_CHARGES

@<TRIPOS>ATOM
      1 C1         -0.0187    1.5258    0.0104 C.3       1 <0>        -0.1872
      2 C2          0.0021   -0.0041    0.0020 C.3       1 <0>         0.0223
      3 H1         -1.0205   -0.3814    0.0098 H         1 <0>         0.1752
      4 C3          0.7309   -0.5033    1.2229 C.2       1 <0>         0.4966
      5 O1          1.7253   -1.1865    1.0985 O.2       1 <0>        -0.5289
      6 N1          0.2778   -0.1906    2.4531 N.am      1 <0>        -0.4918
      7 N2          0.9554   -0.6547    3.5881 N.am      1 <0>        -0.5252
      8 C4          0.5023   -0.3420    4.8183 C.2       1 <0>         0.5301
      9 O2         -0.4920    0.3412    4.9427 O.2       1 <0>        -0.5203
     10 C5          1.2312   -0.8412    6.0392 C.3       1 <0>        -0.0693
     11 C6          0.5150   -0.3477    7.2980 C.3       1 <0>        -0.1340
     12 C7          1.2519   -2.3710    6.0308 C.3       1 <0>        -0.1482
     13 C8          2.6665   -0.3116    6.0283 C.3       1 <0>        -0.1481
     14 N3          0.6897   -0.4778   -1.2066 N.4       1 <0>        -0.6189
     15 H2          1.0039    1.9031    0.0027 H         1 <0>         0.0933
     16 H3         -0.5459    1.8868   -0.8726 H         1 <0>         0.1051
     17 H4         -0.5289    1.8773    0.9072 H         1 <0>         0.1128
     18 H5         -0.5174    0.3558    2.5526 H         1 <0>         0.4408
     19 H6          1.7507   -1.2011    3.4886 H         1 <0>         0.4374
     20 H7         -0.5076   -0.7250    7.3057 H         1 <0>         0.0672
     21 H8          1.0422   -0.7088    8.1811 H         1 <0>         0.0747
     22 H9          0.5002    0.7421    7.3040 H         1 <0>         0.0672
     23 H10         1.7621   -2.7225    5.1340 H         1 <0>         0.0599
     24 H11         1.7791   -2.7321    6.9138 H         1 <0>         0.0819
     25 H12         0.2293   -2.7483    6.0385 H         1 <0>         0.0665
     26 H13         2.6518    0.7783    6.0343 H         1 <0>         0.0665
     27 H14         3.1937   -0.6727    6.9114 H         1 <0>         0.0819
     28 H15         3.1767   -0.6631    5.1315 H         1 <0>         0.0599
     29 H16         1.6363   -0.1286   -1.2138 H         1 <0>         0.4416
     30 H17         0.7033   -1.4867   -1.2121 H         1 <0>         0.4443
     31 H18         0.2017   -0.1436   -2.0240 H         1 <0>         0.4465
@<TRIPOS>BOND
     1    1    2 1
     2    1   15 1
     3    1   16 1
     4    1   17 1
     5    2    3 1
     6    2    4 1
     7    2   14 1
     8    4    5 2
     9    4    6 am
    10    6    7 1
    11    6   18 1
    12    7    8 am
    13    7   19 1
    14    8    9 2
    15    8   10 1
    16   10   11 1
    17   10   12 1
    18   10   13 1
    19   11   20 1
    20   11   21 1
    21   11   22 1
    22   12   23 1
    23   12   24 1
    24   12   25 1
    25   13   26 1
    26   13   27 1
    27   13   28 1
    28   14   29 1
    29   14   30 1
    30   14   31 1
@<TRIPOS>MOLECULE
ZINC04811980
   41    43     0     0     0
SMALL
USER_CHARGES
(ethyl-methyl-methylsulfanyl-BLAHyl)hydrazine
@<TRIPOS>ATOM
      1 C1          2.1040    8.3488    0.8283 C.3       1 <0>        -0.1570
      2 C2          2.6070    7.0225    0.2549 C.3       1 <0>        -0.1120
      3 C3          1.5496    5.9386    0.4736 C.3       1 <0>         0.1176
      4 C4          2.1044    4.5879    0.0124 C.3       1 <0>        -0.0931
      5 C5          0.9613    3.5757    0.0240 C.2       1 <0>        -0.0492
      6 C6         -0.3195    4.0213    0.0475 C.2       1 <0>        -0.2075
      7 S1         -1.3147    2.5540    0.0451 S.3       1 <0>         0.2429
      8 C7         -0.0164    1.3629    0.0193 C.2       1 <0>         0.1617
      9 C8          1.1519    2.1386    0.0133 C.2       1 <0>        -0.2528
     10 C9          2.4463    1.4059    0.0003 C.cat     1 <0>         0.5906
     11 C10         1.2114   -0.6335   -0.5713 C.3       1 <0>         0.3851
     12 H1          1.3088   -1.6452   -0.1774 H         1 <0>         0.1760
     13 N1          0.0042   -0.0077    0.0015 N.pl3     1 <0>        -0.6542
     14 S2          1.0370   -0.7151   -2.3751 S.3       1 <0>        -0.1735
     15 C11         0.8558    1.0185   -2.8773 C.3       1 <0>        -0.1358
     16 N2          3.6387    2.0580    0.2384 N.pl3     1 <0>        -0.5093
     17 N3          4.8002    1.3451    0.3321 N.3       1 <0>        -0.6079
     18 C12        -0.7606    5.4505    0.0637 C.3       1 <0>         0.1371
     19 O1          0.3728    6.2678   -0.2693 O.3       1 <0>        -0.3441
     20 C13         1.2049    5.8636    1.9624 C.3       1 <0>        -0.1902
     21 H2          1.1806    8.6353    0.3250 H         1 <0>         0.0665
     22 H3          1.9157    8.2350    1.8959 H         1 <0>         0.0595
     23 H4          2.8574    9.1210    0.6725 H         1 <0>         0.0609
     24 H5          3.5305    6.7360    0.7582 H         1 <0>         0.0779
     25 H6          2.7953    7.1363   -0.8126 H         1 <0>         0.0761
     26 H7          2.8915    4.2619    0.6924 H         1 <0>         0.0778
     27 H8          2.5044    4.6798   -0.9973 H         1 <0>         0.1010
     28 H9         -0.7327   -0.5360    0.3460 H         1 <0>         0.4509
     29 H10         0.7432    1.0733   -3.9601 H         1 <0>         0.1232
     30 H11        -0.0255    1.4453   -2.3984 H         1 <0>         0.0858
     31 H12         1.7406    1.5787   -2.5752 H         1 <0>         0.0762
     32 H13         3.6522    3.0226    0.3393 H         1 <0>         0.4353
     33 H14         4.9514    0.7897   -0.4966 H         1 <0>         0.3608
     34 H15         5.5852    1.9543    0.5073 H         1 <0>         0.3984
     35 H16        -1.1248    5.7125    1.0571 H         1 <0>         0.0906
     36 H17        -1.5517    5.6004   -0.6710 H         1 <0>         0.1226
     37 H18         2.1033    5.6251    2.5317 H         1 <0>         0.0711
     38 H19         0.8097    6.8242    2.2927 H         1 <0>         0.0825
     39 H20         0.4562    5.0880    2.1234 H         1 <0>         0.0636
     40 N4          2.5062    0.0718   -0.2400 N.pl3     1 <0>        -0.6672
     41 H21         3.3962   -0.4385   -0.1984 H         1 <0>         0.4622
@<TRIPOS>BOND
     1    1    2 1
     2    1   21 1
     3    1   22 1
     4    1   23 1
     5    2    3 1
     6    2   24 1
     7    2   25 1
     8    3   19 1
     9    3    4 1
    10    3   20 1
    11    4    5 1
    12    4   26 1
    13    4   27 1
    14    5    9 1
    15    5    6 2
    16    6    7 1
    17    6   18 1
    18    7    8 1
    19    8   13 1
    20    8    9 2
    21    9   10 1
    22   10   16 1
    23   10   40 2
    24   11   12 1
    25   11   13 1
    26   11   14 1
    27   11   40 1
    28   13   28 1
    29   14   15 1
    30   15   29 1
    31   15   30 1
    32   15   31 1
    33   16   17 1
    34   16   32 1
    35   17   33 1
    36   17   34 1
    37   18   19 1
    38   18   35 1
    39   18   36 1
    40   20   37 1
    41   20   38 1
    42   20   39 1
    43   40   41 1
@<TRIPOS>MOLECULE
ZINC35381098
   37    39     0     0     0
SMALL
USER_CHARGES

@<TRIPOS>ATOM
      1 C1         -0.0184    1.5028    0.0103 C.3       1 <0>        -0.1071
      2 C2          0.0021   -0.0041    0.0020 C.2       1 <0>        -0.0890
      3 C3          0.0089   -0.8403   -1.1379 C.2       1 <0>        -0.2145
      4 C4          0.0287   -2.1088   -0.6906 C.2       1 <0>         0.0175
      5 O1          0.0343   -2.0852    0.6522 O.3       1 <0>        -0.1769
      6 C5          0.0233   -0.8114    1.0777 C.2       1 <0>        -0.1184
      7 C6          0.0300   -0.3627    2.5164 C.3       1 <0>         0.1975
      8 H1         -0.2503    0.6892    2.5702 H         1 <0>         0.1711
      9 C7          1.4104   -0.5448    3.0929 C.ar      1 <0>        -0.1398
     10 C8          1.8268   -1.7954    3.5120 C.ar      1 <0>        -0.0998
     11 C9          3.0898   -1.9577    4.0384 C.ar      1 <0>        -0.1027
     12 C10         3.9598   -0.8711    4.1550 C.ar      1 <0>         0.1641
     13 C11         3.5427    0.3816    3.7354 C.ar      1 <0>         0.1432
     14 C12         2.2622    0.5332    3.1982 C.ar      1 <0>        -0.0789
     15 N1          4.3330    1.5247    3.8089 N.am      1 <0>        -0.6658
     16 C13         5.1217    1.8574    4.8279 C.2       1 <0>         0.5267
     17 O2          5.7331    2.9043    4.7902 O.2       1 <0>        -0.4911
     18 C14         5.2691    0.9578    6.0277 C.3       1 <0>        -0.1630
     19 C15         5.8570   -0.3510    5.5674 C.2       1 <0>         0.5261
     20 O3          6.9343   -0.7041    5.9986 O.2       1 <0>        -0.4896
     21 N2          5.2157   -1.1269    4.6970 N.am      1 <0>        -0.6668
     22 N3         -0.9311   -1.1656    3.2842 N.4       1 <0>        -0.6367
     23 H2          1.0042    1.8801    0.0026 H         1 <0>         0.0845
     24 H3         -0.5455    1.8639   -0.8728 H         1 <0>         0.0848
     25 H4         -0.5286    1.8543    0.9071 H         1 <0>         0.0692
     26 H5         -0.0007   -0.5219   -2.1699 H         1 <0>         0.1633
     27 H6          0.0382   -2.9957   -1.3068 H         1 <0>         0.2191
     28 H7          1.1630   -2.6431    3.4272 H         1 <0>         0.1341
     29 H8          3.4106   -2.9360    4.3648 H         1 <0>         0.1509
     30 H9          1.9344    1.5071    2.8658 H         1 <0>         0.1487
     31 H10         4.3069    2.1311    3.0523 H         1 <0>         0.4177
     32 H11         5.9331    1.4229    6.7564 H         1 <0>         0.1499
     33 H12         4.2921    0.7836    6.4786 H         1 <0>         0.1286
     34 H13         5.6621   -1.9411    4.4164 H         1 <0>         0.4196
     35 H14        -0.6716   -2.1394    3.2344 H         1 <0>         0.4365
     36 H15        -0.9266   -0.8652    4.2474 H         1 <0>         0.4432
     37 H16        -1.8554   -1.0437    2.8982 H         1 <0>         0.4436
@<TRIPOS>BOND
     1    1    2 1
     2    1   23 1
     3    1   24 1
     4    1   25 1
     5    2    6 2
     6    2    3 1
     7    3    4 2
     8    3   26 1
     9    4    5 1
    10    4   27 1
    11    5    6 1
    12    6    7 1
    13    7    8 1
    14    7    9 1
    15    7   22 1
    16    9   14 ar
    17    9   10 ar
    18   10   11 ar
    19   10   28 1
    20   11   12 ar
    21   11   29 1
    22   12   21 1
    23   12   13 ar
    24   13   14 ar
    25   13   15 1
    26   14   30 1
    27   15   16 am
    28   15   31 1
    29   16   17 2
    30   16   18 1
    31   18   19 1
    32   18   32 1
    33   18   33 1
    34   19   20 2
    35   19   21 am
    36   21   34 1
    37   22   35 1
    38   22   36 1
    39   22   37 1
@<TRIPOS>MOLECULE
ZINC40674292
   33    34     0     0     0
SMALL
USER_CHARGES

@<TRIPOS>ATOM
      1 C1         -1.0065   -1.2150    0.1801 C.3       1 <0>        -0.1750
      2 C2         -0.0748   -0.0052    0.0839 C.3       1 <0>         0.0400
      3 C3         -0.8890    1.2798    0.2475 C.3       1 <0>        -0.1960
      4 C4          0.9643   -0.0835    1.1726 C.2       1 <0>         0.4938
      5 O1          0.9762    0.7429    2.0602 O.2       1 <0>        -0.4740
      6 N1          1.8803   -1.0720    1.1600 N.am      1 <0>        -0.8346
      7 N2          0.5886   -0.0010   -1.2267 N.4       1 <0>        -0.4818
      8 C5          1.5571    1.1022   -1.2818 C.3       1 <0>         0.0424
      9 H1          1.9435    1.2197   -2.2942 H         1 <0>         0.1950
     10 C6          0.9227    2.3882   -0.8045 C.ar      1 <0>        -0.1891
     11 C7         -0.1413    3.1331   -1.2614 C.ar      1 <0>        -0.0413
     12 C8         -0.5017    4.2969   -0.6053 C.ar      1 <0>        -0.1068
     13 C9          0.2097    4.7074    0.5086 C.ar      1 <0>        -0.0314
     14 C10         1.2767    3.9622    0.9683 C.ar      1 <0>        -0.0957
     15 C11         1.6449    2.7893    0.3123 C.ar      1 <0>         0.1808
     16 N3          2.6680    1.8784    0.5778 N.am      1 <0>        -0.6315
     17 C12         2.6898    0.8628   -0.3063 C.2       1 <0>         0.5179
     18 O2          3.4673   -0.0680   -0.3194 O.2       1 <0>        -0.4480
     19 Br1        -0.2822    6.2981    1.4050 Br        1 <0>         0.0009
     20 H2         -1.8096   -1.1140   -0.5499 H         1 <0>         0.1029
     21 H3         -0.4424   -2.1251   -0.0239 H         1 <0>         0.0874
     22 H4         -1.4311   -1.2678    1.1826 H         1 <0>         0.1156
     23 H5         -1.5993    1.1582    1.0653 H         1 <0>         0.1055
     24 H6         -0.2178    2.1094    0.4696 H         1 <0>         0.1211
     25 H7         -1.4299    1.4872   -0.6758 H         1 <0>         0.0942
     26 H8          1.8708   -1.7330    0.4501 H         1 <0>         0.4038
     27 H9          2.5491   -1.1225    1.8607 H         1 <0>         0.4251
     28 H10         1.0692   -0.8776   -1.3633 H         1 <0>         0.4336
     29 H11        -0.6938    2.8096   -2.1312 H         1 <0>         0.1524
     30 H12        -1.3356    4.8834   -0.9616 H         1 <0>         0.1581
     31 H13         1.8274    4.2890    1.8380 H         1 <0>         0.1529
     32 H14         3.2931    1.9670    1.3143 H         1 <0>         0.4373
     33 H15        -0.1015    0.1208   -1.9526 H         1 <0>         0.4444
@<TRIPOS>BOND
     1    1    2 1
     2    1   20 1
     3    1   21 1
     4    1   22 1
     5    2    3 1
     6    2    4 1
     7    2    7 1
     8    3   23 1
     9    3   24 1
    10    3   25 1
    11    4    5 2
    12    4    6 am
    13    6   26 1
    14    6   27 1
    15    7    8 1
    16    7   28 1
    17    7   33 1
    18    8    9 1
    19    8   17 1
    20    8   10 1
    21   10   15 ar
    22   10   11 ar
    23   11   12 ar
    24   11   29 1
    25   12   13 ar
    26   12   30 1
    27   13   14 ar
    28   13   19 1
    29   14   15 ar
    30   14   31 1
    31   15   16 1
    32   16   17 am
    33   16   32 1
    34   17   18 2
@<TRIPOS>MOLECULE
ZINC20290962
   48    50     0     0     0
SMALL
USER_CHARGES

@<TRIPOS>ATOM
      1 C1          0.1056    1.4994   -0.0135 C.3       1 <0>        -0.1228
      2 C2          0.0900   -0.0075   -0.0167 C.ar      1 <0>        -0.0555
      3 C3         -1.0921   -0.6858    0.2171 C.ar      1 <0>        -0.1094
      4 C4         -1.1095   -2.0668    0.2152 C.ar      1 <0>        -0.0764
      5 C5          0.0615   -2.7741   -0.0223 C.ar      1 <0>         0.1008
      6 C6          1.2468   -2.0902   -0.2572 C.ar      1 <0>        -0.0733
      7 C7          1.2567   -0.7090   -0.2591 C.ar      1 <0>        -0.1083
      8 N1          0.0472   -4.1751   -0.0244 N.am      1 <0>        -0.4644
      9 C8          0.1824   -4.8372    1.1431 C.2       1 <0>         0.5720
     10 O1          0.3158   -4.2343    2.1915 O.2       1 <0>        -0.4690
     11 C9          0.1636   -6.3106    1.1144 C.2       1 <0>        -0.4042
     12 C10         0.2961   -7.0563    2.2707 C.2       1 <0>         0.3413
     13 N2          0.4095   -8.3980    2.1984 N.pl3     1 <0>        -0.6919
     14 C11         0.4170   -9.1996    3.4245 C.3       1 <0>         0.1090
     15 H1         -0.2471   -8.7452    4.1598 H         1 <0>         0.1232
     16 C12         1.8385   -9.2568    3.9877 C.3       1 <0>        -0.1359
     17 C13         2.7707   -9.8945    2.9557 C.3       1 <0>        -0.1339
     18 C14         2.2894  -11.3124    2.6411 C.3       1 <0>        -0.1187
     19 C15         0.8679  -11.2552    2.0779 C.3       1 <0>        -0.1498
     20 C16        -0.0643  -10.6174    3.1099 C.3       1 <0>         0.0216
     21 H2         -0.0586  -11.2139    4.0222 H         1 <0>         0.1666
     22 N3         -1.4290  -10.5626    2.5692 N.4       1 <0>        -0.6399
     23 C17        -0.0031   -6.9542   -0.2012 C.2       1 <0>         0.5815
     24 O2         -0.0288   -8.1662   -0.3052 O.2       1 <0>        -0.5320
     25 N4         -0.1270   -6.1630   -1.2868 N.am      1 <0>        -0.6142
     26 C18        -0.1060   -4.8266   -1.1858 C.2       1 <0>         0.5184
     27 S1         -0.2776   -3.9027   -2.6169 S.2       1 <0>        -0.4601
     28 H3         -0.0972    1.8671   -1.0194 H         1 <0>         0.0792
     29 H4         -0.6592    1.8692    0.6696 H         1 <0>         0.0717
     30 H5          1.0844    1.8520    0.3118 H         1 <0>         0.0719
     31 H6         -2.0026   -0.1351    0.4017 H         1 <0>         0.1345
     32 H7         -2.0329   -2.5961    0.3985 H         1 <0>         0.1233
     33 H8          2.1593   -2.6376   -0.4418 H         1 <0>         0.1243
     34 H9          2.1775   -0.1765   -0.4461 H         1 <0>         0.1350
     35 H10         0.3089   -6.5644    3.2321 H         1 <0>         0.1861
     36 H11         0.4860   -8.8323    1.3344 H         1 <0>         0.4232
     37 H12         2.1813   -8.2467    4.2119 H         1 <0>         0.0943
     38 H13         1.8441   -9.8532    4.9001 H         1 <0>         0.0974
     39 H14         2.7651   -9.2981    2.0434 H         1 <0>         0.0699
     40 H15         3.7833   -9.9353    3.3569 H         1 <0>         0.0883
     41 H16         2.9535  -11.7667    1.9058 H         1 <0>         0.0911
     42 H17         2.2950  -11.9088    3.5534 H         1 <0>         0.0817
     43 H18         0.8623  -10.6588    1.1656 H         1 <0>         0.0891
     44 H19         0.5251  -12.2653    1.8537 H         1 <0>         0.1008
     45 H20        -1.4342  -10.0104    1.7246 H         1 <0>         0.4340
     46 H21        -1.7464  -11.4976    2.3617 H         1 <0>         0.4429
     47 H22        -0.2375   -6.5706   -2.1600 H         1 <0>         0.4482
     48 H23        -2.0438  -10.1420    3.2498 H         1 <0>         0.4384
@<TRIPOS>BOND
     1    1    2 1
     2    1   28 1
     3    1   29 1
     4    1   30 1
     5    2    7 ar
     6    2    3 ar
     7    3    4 ar
     8    3   31 1
     9    4    5 ar
    10    4   32 1
    11    5    6 ar
    12    5    8 1
    13    6    7 ar
    14    6   33 1
    15    7   34 1
    16    8   26 1
    17    8    9 am
    18    9   10 2
    19    9   11 1
    20   11   12 2
    21   11   23 1
    22   12   13 1
    23   12   35 1
    24   13   14 1
    25   13   36 1
    26   14   15 1
    27   14   20 1
    28   14   16 1
    29   16   17 1
    30   16   37 1
    31   16   38 1
    32   17   18 1
    33   17   39 1
    34   17   40 1
    35   18   19 1
    36   18   41 1
    37   18   42 1
    38   19   20 1
    39   19   43 1
    40   19   44 1
    41   20   21 1
    42   20   22 1
    43   22   45 1
    44   22   46 1
    45   22   48 1
    46   23   24 2
    47   23   25 am
    48   25   26 1
    49   25   47 1
    50   26   27 2
@<TRIPOS>MOLECULE
ZINC45420191
   54    55     0     0     0
SMALL
USER_CHARGES

@<TRIPOS>ATOM
      1 C1         -0.0187    1.5258    0.0104 C.3       1 <0>        -0.1407
      2 C2          0.0021   -0.0041    0.0020 C.3       1 <0>         0.1028
      3 C3          0.7421   -0.5109    1.2415 C.3       1 <0>        -0.1379
      4 C4          2.1775    0.0187    1.2307 C.3       1 <0>        -0.1183
      5 C5          2.9174   -0.4882    2.4702 C.3       1 <0>         0.0555
      6 N1          4.2956    0.0203    2.4598 N.3       1 <0>        -0.5396
      7 C6          4.3186    1.4813    2.6057 C.3       1 <0>         0.0517
      8 C7          5.7534    1.9888    2.4450 C.3       1 <0>        -0.1365
      9 C8          6.6422    1.3370    3.5079 C.3       1 <0>         0.0236
     10 C9          6.5626   -0.1854    3.3648 C.3       1 <0>        -0.1363
     11 C10         5.1043   -0.6299    3.4988 C.3       1 <0>         0.0558
     12 N2          8.0319    1.7755    3.3220 N.4       1 <0>        -0.3793
     13 C11         8.8830    1.1423    4.3364 C.3       1 <0>        -0.0115
     14 C12        10.3434    1.5318    4.0976 C.3       1 <0>        -0.1452
     15 C13        10.4819    3.0540    4.1907 C.3       1 <0>        -0.1394
     16 C14         9.5346    3.7057    3.1792 C.3       1 <0>        -0.1451
     17 C15         8.1041    3.2357    3.4521 C.3       1 <0>        -0.0114
     18 C16        -1.4117   -0.5257    0.0127 C.2       1 <0>         0.5269
     19 O1         -1.9390   -0.8271    1.0625 O.2       1 <0>        -0.5454
     20 N3         -2.0902   -0.6573   -1.1443 N.am      1 <0>        -0.8411
     21 N4          0.6897   -0.4778   -1.2066 N.3       1 <0>        -0.8358
     22 H1          1.0039    1.9031    0.0027 H         1 <0>         0.0685
     23 H2         -0.5459    1.8868   -0.8726 H         1 <0>         0.0707
     24 H3         -0.5289    1.8773    0.9072 H         1 <0>         0.0683
     25 H4          0.2319   -0.1594    2.1383 H         1 <0>         0.0819
     26 H5          0.7568   -1.6008    1.2356 H         1 <0>         0.0693
     27 H6          2.6876   -0.3328    0.3339 H         1 <0>         0.0720
     28 H7          2.1627    1.1086    1.2367 H         1 <0>         0.0698
     29 H8          2.4073   -0.1366    3.3670 H         1 <0>         0.0436
     30 H9          2.9322   -1.5780    2.4642 H         1 <0>         0.0826
     31 H10         3.6860    1.9327    1.8414 H         1 <0>         0.0992
     32 H11         3.9455    1.7536    3.5930 H         1 <0>         0.0462
     33 H12         6.1224    1.7290    1.4528 H         1 <0>         0.0957
     34 H13         5.7724    3.0716    2.5689 H         1 <0>         0.0923
     35 H14         6.2970    1.6282    4.4999 H         1 <0>         0.1327
     36 H15         6.9442   -0.4795    2.3871 H         1 <0>         0.0958
     37 H16         7.1597   -0.6561    4.1458 H         1 <0>         0.0926
     38 H17         4.7275   -0.3477    4.4819 H         1 <0>         0.0464
     39 H18         5.0423   -1.7120    3.3832 H         1 <0>         0.0969
     40 H19         8.5759    1.4761    5.3275 H         1 <0>         0.1269
     41 H20         8.7810    0.0591    4.2710 H         1 <0>         0.1313
     42 H21        10.9736    1.0621    4.8529 H         1 <0>         0.1118
     43 H22        10.6517    1.1982    3.1067 H         1 <0>         0.0875
     44 H23        10.2226    3.3827    5.1972 H         1 <0>         0.0813
     45 H24        11.5090    3.3411    3.9656 H         1 <0>         0.0943
     46 H25         9.5865    4.7900    3.2781 H         1 <0>         0.1118
     47 H26         9.8261    3.4173    2.1693 H         1 <0>         0.0875
     48 H27         7.4270    3.6980    2.7338 H         1 <0>         0.1313
     49 H28         7.8136    3.5249    4.4621 H         1 <0>         0.1269
     50 H29        -1.6686   -0.4162   -1.9840 H         1 <0>         0.4108
     51 H30        -3.0003   -0.9930   -1.1375 H         1 <0>         0.4016
     52 H31         1.6187   -0.0893   -1.2698 H         1 <0>         0.3506
     53 H32         0.7166   -1.4860   -1.2356 H         1 <0>         0.3481
     54 H33         8.3489    1.5046    2.4032 H         1 <0>         0.4208
@<TRIPOS>BOND
     1    1    2 1
     2    1   22 1
     3    1   23 1
     4    1   24 1
     5    2    3 1
     6    2   18 1
     7    2   21 1
     8    3    4 1
     9    3   25 1
    10    3   26 1
    11    4    5 1
    12    4   27 1
    13    4   28 1
    14    5    6 1
    15    5   29 1
    16    5   30 1
    17    6   11 1
    18    6    7 1
    19    7    8 1
    20    7   31 1
    21    7   32 1
    22    8    9 1
    23    8   33 1
    24    8   34 1
    25    9   10 1
    26    9   12 1
    27    9   35 1
    28   10   11 1
    29   10   36 1
    30   10   37 1
    31   11   38 1
    32   11   39 1
    33   12   17 1
    34   12   13 1
    35   12   54 1
    36   13   14 1
    37   13   40 1
    38   13   41 1
    39   14   15 1
    40   14   42 1
    41   14   43 1
    42   15   16 1
    43   15   44 1
    44   15   45 1
    45   16   17 1
    46   16   46 1
    47   16   47 1
    48   17   48 1
    49   17   49 1
    50   18   19 2
    51   18   20 am
    52   20   50 1
    53   20   51 1
    54   21   52 1
    55   21   53 1
@<TRIPOS>MOLECULE
ZINC00186268
   42    43     0     0     0
SMALL
USER_CHARGES
8-[bis(2-hydroxyethyl)aminomethyl]-6,7-dihydroxy-4-methyl-chromen-2-one
@<TRIPOS>ATOM
      1 C1          6.8537    1.2342    0.3741 C.3       1 <0>        -0.1359
      2 C2          5.6146    0.3780    0.3245 C.2       1 <0>         0.0292
      3 C3          5.5675   -0.8189    0.9657 C.2       1 <0>        -0.2406
      4 C4          4.3967   -1.6017    0.9037 C.2       1 <0>         0.5104
      5 O1          4.3675   -2.6726    1.4834 O.2       1 <0>        -0.4372
      6 O2          3.3134   -1.1972    0.2229 O.3       1 <0>        -0.2821
      7 C5          3.2939   -0.0182   -0.4365 C.ar      1 <0>         0.1706
      8 C6          4.4290    0.8132   -0.4164 C.ar      1 <0>        -0.1323
      9 C7          4.4152    2.0364   -1.0973 C.ar      1 <0>        -0.0429
     10 C8          3.2848    2.4204   -1.7861 C.ar      1 <0>         0.0729
     11 C9          2.1601    1.5907   -1.8092 C.ar      1 <0>         0.1602
     12 C10         2.1642    0.3827   -1.1343 C.ar      1 <0>        -0.1835
     13 C11         0.9433   -0.5004   -1.1626 C.3       1 <0>         0.0377
     14 C12        -1.3263   -0.6780   -0.3379 C.3       1 <0>        -0.0085
     15 C13        -2.0138   -0.0703   -1.5622 C.3       1 <0>         0.0498
     16 O3         -1.2903   -0.4281   -2.7414 O.3       1 <0>        -0.5722
     17 C14         0.4964   -0.2887    1.2076 C.3       1 <0>        -0.0089
     18 C15        -0.1593    0.6889    2.1850 C.3       1 <0>         0.0502
     19 O4         -1.5433    0.3632    2.3279 O.3       1 <0>        -0.5764
     20 O5          1.0530    1.9754   -2.4954 O.3       1 <0>        -0.4720
     21 O6          3.2657    3.6075   -2.4499 O.3       1 <0>        -0.4806
     22 H1          7.5083    0.9746   -0.4578 H         1 <0>         0.0993
     23 H2          6.5725    2.2848    0.3010 H         1 <0>         0.0844
     24 H3          7.3765    1.0627    1.3151 H         1 <0>         0.0932
     25 H4          6.4245   -1.1695    1.5216 H         1 <0>         0.1744
     26 H5          5.2857    2.6755   -1.0832 H         1 <0>         0.1640
     27 H6          1.2341   -1.5293   -0.9508 H         1 <0>         0.1406
     28 H7          0.4806   -0.4491   -2.1482 H         1 <0>         0.1797
     29 H8         -1.1929   -1.7490   -0.4904 H         1 <0>         0.1372
     30 H9         -1.9426   -0.5107    0.5453 H         1 <0>         0.1631
     31 H10        -3.0332   -0.4499   -1.6322 H         1 <0>         0.0969
     32 H11        -2.0362    1.0151   -1.4649 H         1 <0>         0.0677
     33 H12        -1.6253   -0.0148   -3.5490 H         1 <0>         0.4050
     34 H13         0.2628   -1.3110    1.5047 H         1 <0>         0.1449
     35 H14         1.5768   -0.1446    1.2197 H         1 <0>         0.1325
     36 H15         0.3327    0.6179    3.1550 H         1 <0>         0.0965
     37 H16        -0.0629    1.7050    1.8022 H         1 <0>         0.0686
     38 H17        -2.0234    0.9434    2.9345 H         1 <0>         0.4071
     39 H18         0.4610    2.5534   -1.9948 H         1 <0>         0.4002
     40 H19         3.5660    3.5501   -3.3673 H         1 <0>         0.4075
     41 N1         -0.0185   -0.0152   -0.1505 N.4       1 <0>        -0.3840
     42 H20        -0.1389    0.9982   -0.2637 H         1 <0>         0.4136
@<TRIPOS>BOND
     1    1    2 1
     2    1   22 1
     3    1   23 1
     4    1   24 1
     5    2    8 1
     6    2    3 2
     7    3    4 1
     8    3   25 1
     9    4    5 2
    10    4    6 1
    11    6    7 1
    12    7   12 ar
    13    7    8 ar
    14    8    9 ar
    15    9   10 ar
    16    9   26 1
    17   10   11 ar
    18   10   21 1
    19   11   12 ar
    20   11   20 1
    21   12   13 1
    22   13   27 1
    23   13   28 1
    24   13   41 1
    25   14   15 1
    26   14   29 1
    27   14   30 1
    28   14   41 1
    29   15   16 1
    30   15   31 1
    31   15   32 1
    32   16   33 1
    33   17   18 1
    34   17   34 1
    35   17   35 1
    36   17   41 1
    37   18   19 1
    38   18   36 1
    39   18   37 1
    40   19   38 1
    41   20   39 1
    42   21   40 1
    43   41   42 1
@<TRIPOS>MOLECULE
ZINC20440513
   47    48     0     0     0
SMALL
USER_CHARGES

@<TRIPOS>ATOM
      1 C1          0.6208    1.1928    0.3177 C.3       1 <0>        -0.1534
      2 C2          0.3431   -0.3070    0.1982 C.3       1 <0>        -0.1204
      3 C3          1.0205   -0.8524   -1.0605 C.3       1 <0>        -0.1335
      4 C4          0.7428   -2.3523   -1.1800 C.3       1 <0>         0.1079
      5 N1          1.3914   -2.8745   -2.3853 N.am      1 <0>        -0.5565
      6 C5          0.7130   -2.8748   -3.5512 C.2       1 <0>         0.5827
      7 O1         -0.4249   -2.4484   -3.6121 O.2       1 <0>        -0.4957
      8 C6          1.3876   -3.4050   -4.7495 C.2       1 <0>        -0.4044
      9 C7          0.7555   -3.4368   -5.9787 C.2       1 <0>         0.3330
     10 N2          1.4489   -3.7729   -7.0847 N.pl3     1 <0>        -0.6957
     11 C8          0.7554   -3.9248   -8.3662 C.3       1 <0>         0.1106
     12 H1         -0.2373   -4.3411   -8.1949 H         1 <0>         0.1215
     13 C9          0.6256   -2.5578   -9.0410 C.3       1 <0>        -0.1356
     14 C10         2.0190   -1.9734   -9.2813 C.3       1 <0>        -0.1336
     15 C11         2.8179   -2.9146  -10.1852 C.3       1 <0>        -0.1185
     16 C12         2.9476   -4.2816   -9.5104 C.3       1 <0>        -0.1495
     17 C13         1.5542   -4.8660   -9.2700 C.3       1 <0>         0.0216
     18 H2          1.0382   -4.9789  -10.2234 H         1 <0>         0.1650
     19 N3          1.6787   -6.1784   -8.6221 N.4       1 <0>        -0.6396
     20 C14         2.7656   -3.8993   -4.5803 C.2       1 <0>         0.5926
     21 O2          3.3875   -4.3512   -5.5233 O.2       1 <0>        -0.5458
     22 N4          3.3191   -3.8367   -3.3517 N.am      1 <0>        -0.6598
     23 C15         2.6473   -3.3361   -2.3053 C.2       1 <0>         0.7080
     24 O3          3.2048   -3.3033   -1.2259 O.2       1 <0>        -0.5145
     25 H3          1.6961    1.3592    0.3826 H         1 <0>         0.0548
     26 H4          0.2260    1.7064   -0.5589 H         1 <0>         0.0540
     27 H5          0.1382    1.5814    1.2144 H         1 <0>         0.0594
     28 H6          0.7379   -0.8206    1.0749 H         1 <0>         0.0679
     29 H7         -0.7322   -0.4733    0.1333 H         1 <0>         0.0670
     30 H8          0.6257   -0.3389   -1.9372 H         1 <0>         0.0678
     31 H9          2.0958   -0.6861   -0.9956 H         1 <0>         0.0691
     32 H10         1.1376   -2.8658   -0.3034 H         1 <0>         0.1041
     33 H11        -0.3325   -2.5186   -1.2449 H         1 <0>         0.1040
     34 H12        -0.2939   -3.1924   -6.0527 H         1 <0>         0.1829
     35 H13         2.4071   -3.9142   -7.0321 H         1 <0>         0.4226
     36 H14         0.1096   -2.6708   -9.9944 H         1 <0>         0.0957
     37 H15         0.0565   -1.8872   -8.3971 H         1 <0>         0.0941
     38 H16         1.9266   -0.9995   -9.7621 H         1 <0>         0.0872
     39 H17         2.5351   -1.8604   -8.3279 H         1 <0>         0.0706
     40 H18         2.3018   -3.0276  -11.1386 H         1 <0>         0.0809
     41 H19         3.8106   -2.4982  -10.3564 H         1 <0>         0.0904
     42 H20         3.5167   -4.9521  -10.1543 H         1 <0>         0.0996
     43 H21         3.4636   -4.1686   -8.5569 H         1 <0>         0.0898
     44 H22         0.7598   -6.5638   -8.4636 H         1 <0>         0.4380
     45 H23         2.2055   -6.7991   -9.2181 H         1 <0>         0.4420
     46 H24         4.2252   -4.1582   -3.2232 H         1 <0>         0.4369
     47 H25         2.1564   -6.0738   -7.7395 H         1 <0>         0.4348
@<TRIPOS>BOND
     1    1    2 1
     2    1   25 1
     3    1   26 1
     4    1   27 1
     5    2    3 1
     6    2   28 1
     7    2   29 1
     8    3    4 1
     9    3   30 1
    10    3   31 1
    11    4    5 1
    12    4   32 1
    13    4   33 1
    14    5   23 am
    15    5    6 am
    16    6    7 2
    17    6    8 1
    18    8    9 2
    19    8   20 1
    20    9   10 1
    21    9   34 1
    22   10   11 1
    23   10   35 1
    24   11   12 1
    25   11   17 1
    26   11   13 1
    27   13   14 1
    28   13   36 1
    29   13   37 1
    30   14   15 1
    31   14   38 1
    32   14   39 1
    33   15   16 1
    34   15   40 1
    35   15   41 1
    36   16   17 1
    37   16   42 1
    38   16   43 1
    39   17   18 1
    40   17   19 1
    41   19   44 1
    42   19   45 1
    43   19   47 1
    44   20   21 2
    45   20   22 am
    46   22   23 am
    47   22   46 1
    48   23   24 2
@<TRIPOS>MOLECULE
ZINC43563359
   50    51     0     0     0
SMALL
USER_CHARGES

@<TRIPOS>ATOM
      1 C1          0.0194    1.3159    0.7754 C.3       1 <0>        -0.1816
      2 C2          0.0021   -0.0041    0.0020 C.3       1 <0>         0.0079
      3 H1          0.2296    0.1863   -1.0468 H         1 <0>         0.1638
      4 C3         -1.3625   -0.6339    0.1137 C.2       1 <0>         0.5128
      5 O1         -1.5913   -1.4319    0.9972 O.2       1 <0>        -0.4449
      6 N1         -2.3284   -0.3099   -0.7686 N.am      1 <0>        -0.6760
      7 C4         -3.5488   -0.8731   -0.6687 C.2       1 <0>         0.6917
      8 O2         -3.7782   -1.6732    0.2169 O.2       1 <0>        -0.5182
      9 N2         -4.5147   -0.5492   -1.5510 N.am      1 <0>        -0.7203
     10 C5         -5.8412   -1.1614   -1.4425 C.3       1 <0>         0.1354
     11 C6         -6.7427   -0.6261   -2.5568 C.3       1 <0>         0.0663
     12 H2         -6.3130   -0.8537   -3.5324 H         1 <0>         0.0817
     13 C7         -8.1625   -1.2353   -2.4392 C.3       1 <0>        -0.1489
     14 C8         -9.0095   -0.1498   -3.1578 C.3       1 <0>        -0.1566
     15 C9         -8.2654    1.1492   -2.7805 C.3       1 <0>         0.0502
     16 O3         -6.9271    0.7910   -2.4115 O.3       1 <0>        -0.3818
     17 N3          1.0089   -0.9142    0.5641 N.4       1 <0>        -0.3742
     18 C10         1.0099   -2.1699   -0.1959 C.3       1 <0>        -0.0139
     19 C11         1.9994   -3.1518    0.4352 C.3       1 <0>        -0.1250
     20 C12         3.4026   -2.5388    0.4131 C.3       1 <0>        -0.1238
     21 C13         3.3730   -1.1938    1.1448 C.3       1 <0>        -0.1393
     22 C14         2.3326   -0.2845    0.4874 C.3       1 <0>        -0.0080
     23 C15         4.3688   -3.4668    1.1033 C.2       1 <0>         0.5197
     24 O4          3.9753   -4.5158    1.5678 O.2       1 <0>        -0.5258
     25 N4          5.6701   -3.1311    1.2044 N.am      1 <0>        -0.8495
     26 H3          1.0063    1.7715    0.6947 H         1 <0>         0.1033
     27 H4         -0.7277    1.9912    0.3583 H         1 <0>         0.1138
     28 H5         -0.2082    1.1255    1.8243 H         1 <0>         0.0936
     29 H6         -2.1453    0.3286   -1.4755 H         1 <0>         0.4180
     30 H7         -4.3316    0.0893   -2.2579 H         1 <0>         0.4065
     31 H8         -5.7507   -2.2436   -1.5366 H         1 <0>         0.0889
     32 H9         -6.2764   -0.9161   -0.4737 H         1 <0>         0.0824
     33 H10        -8.2245   -2.1907   -2.9603 H         1 <0>         0.0910
     34 H11        -8.4603   -1.3390   -1.3958 H         1 <0>         0.0860
     35 H12        -9.0008   -0.3024   -4.2370 H         1 <0>         0.0808
     36 H13       -10.0299   -0.1375   -2.7749 H         1 <0>         0.0887
     37 H14        -8.2435    1.8245   -3.6359 H         1 <0>         0.0733
     38 H15        -8.7654    1.6310   -1.9403 H         1 <0>         0.0739
     39 H16         0.0098   -2.6033   -0.1820 H         1 <0>         0.1355
     40 H17         1.3040   -1.9702   -1.2263 H         1 <0>         0.1334
     41 H18         1.7060   -3.3524    1.4656 H         1 <0>         0.1013
     42 H19         1.9999   -4.0828   -0.1316 H         1 <0>         0.1226
     43 H20         3.7171   -2.3853   -0.6192 H         1 <0>         0.1186
     44 H21         3.1081   -1.3538    2.1900 H         1 <0>         0.0985
     45 H22         4.3554   -0.7254    1.0852 H         1 <0>         0.1211
     46 H23         2.5986   -0.1250   -0.5576 H         1 <0>         0.1370
     47 H24         2.3091    0.6740    1.0058 H         1 <0>         0.1423
     48 H25         5.9848   -2.2921    0.8329 H         1 <0>         0.4029
     49 H26         6.2920   -3.7284    1.6487 H         1 <0>         0.4121
     50 H27         0.7849   -1.1074    1.5288 H         1 <0>         0.4328
@<TRIPOS>BOND
     1    1    2 1
     2    1   26 1
     3    1   27 1
     4    1   28 1
     5    2    3 1
     6    2    4 1
     7    2   17 1
     8    4    5 2
     9    4    6 am
    10    6    7 am
    11    6   29 1
    12    7    8 2
    13    7    9 am
    14    9   10 1
    15    9   30 1
    16   10   11 1
    17   10   31 1
    18   10   32 1
    19   11   12 1
    20   11   16 1
    21   11   13 1
    22   13   14 1
    23   13   33 1
    24   13   34 1
    25   14   15 1
    26   14   35 1
    27   14   36 1
    28   15   16 1
    29   15   37 1
    30   15   38 1
    31   17   22 1
    32   17   18 1
    33   17   50 1
    34   18   19 1
    35   18   39 1
    36   18   40 1
    37   19   20 1
    38   19   41 1
    39   19   42 1
    40   20   21 1
    41   20   23 1
    42   20   43 1
    43   21   22 1
    44   21   44 1
    45   21   45 1
    46   22   46 1
    47   22   47 1
    48   23   24 2
    49   23   25 am
    50   25   48 1
    51   25   49 1
@<TRIPOS>MOLECULE
ZINC51146857
   40    42     0     0     0
SMALL
USER_CHARGES

@<TRIPOS>ATOM
      1 C1         -1.5629    1.3895    0.6412 C.3       1 <0>        -0.1195
      2 C2         -1.3938   -0.1064    0.5719 C.2       1 <0>        -0.1061
      3 C3         -2.0375   -0.8192   -0.3642 C.2       1 <0>        -0.1154
      4 S1         -1.5242   -2.4951   -0.0379 S.3       1 <0>         0.1555
      5 C4         -0.4589   -2.1930    1.3470 C.ar      1 <0>         0.1235
      6 C5         -0.5272   -0.7922    1.5144 C.ar      1 <0>        -0.1937
      7 C6          0.2554   -0.2668    2.5789 C.ar      1 <0>         0.5022
      8 N1          0.9778   -1.0935    3.3177 N.ar      1 <0>        -0.5656
      9 C7          0.9978   -2.3962    3.1003 C.ar      1 <0>         0.3017
     10 N2          0.2854   -2.9438    2.1345 N.ar      1 <0>        -0.4906
     11 C8          1.8441   -3.2776    3.9822 C.3       1 <0>         0.0829
     12 N3          1.0499   -3.7249    5.1342 N.4       1 <0>        -0.3844
     13 C9          1.9028   -4.4980    6.0504 C.3       1 <0>        -0.0210
     14 C10         1.1366   -4.7381    7.3527 C.3       1 <0>         0.0838
     15 N4         -0.1841   -5.2884    7.0582 N.am      1 <0>        -0.7240
     16 C11        -0.7422   -5.2132    5.8447 C.2       1 <0>         0.5062
     17 O1         -1.8530   -5.6734    5.6856 O.2       1 <0>        -0.4870
     18 C12        -0.0490   -4.5813    4.6711 C.3       1 <0>        -0.0157
     19 N5          0.2620    1.0918    2.8388 N.pl3     1 <0>        -0.5515
     20 N6          0.4821    1.5432    4.1091 N.3       1 <0>        -0.5972
     21 C13        -2.9728   -0.3220   -1.4361 C.3       1 <0>        -0.0817
     22 H1         -0.7375    1.8731    0.1186 H         1 <0>         0.0776
     23 H2         -2.5052    1.6708    0.1712 H         1 <0>         0.0869
     24 H3         -1.5682    1.7066    1.6841 H         1 <0>         0.0740
     25 H4          2.1801   -4.1449    3.4139 H         1 <0>         0.1602
     26 H5          2.7097   -2.7160    4.3337 H         1 <0>         0.1631
     27 H6          2.1562   -5.4547    5.5939 H         1 <0>         0.1457
     28 H7          2.8143   -3.9384    6.2607 H         1 <0>         0.1591
     29 H8          1.6912   -5.4407    7.9747 H         1 <0>         0.1310
     30 H9          1.0248   -3.7942    7.8863 H         1 <0>         0.1006
     31 H10        -0.6758   -5.7260    7.7707 H         1 <0>         0.4269
     32 H11        -0.7641   -3.9798    4.1100 H         1 <0>         0.1592
     33 H12         0.3497   -5.3623    4.0236 H         1 <0>         0.1707
     34 H13         0.1103    1.7241    2.1189 H         1 <0>         0.4237
     35 H14         1.3545    1.1897    4.4724 H         1 <0>         0.3489
     36 H15         0.4578    2.5513    4.1440 H         1 <0>         0.3685
     37 H16        -2.4023   -0.0820   -2.3334 H         1 <0>         0.0919
     38 H17        -3.7048   -1.0958   -1.6671 H         1 <0>         0.0848
     39 H18        -3.4877    0.5716   -1.0832 H         1 <0>         0.0919
     40 H19         0.6730   -2.9228    5.6167 H         1 <0>         0.4329
@<TRIPOS>BOND
     1    1    2 1
     2    1   22 1
     3    1   23 1
     4    1   24 1
     5    2    6 1
     6    2    3 2
     7    3    4 1
     8    3   21 1
     9    4    5 1
    10    5   10 ar
    11    5    6 ar
    12    6    7 ar
    13    7    8 ar
    14    7   19 1
    15    8    9 ar
    16    9   10 ar
    17    9   11 1
    18   11   12 1
    19   11   25 1
    20   11   26 1
    21   12   18 1
    22   12   13 1
    23   12   40 1
    24   13   14 1
    25   13   27 1
    26   13   28 1
    27   14   15 1
    28   14   29 1
    29   14   30 1
    30   15   16 am
    31   15   31 1
    32   16   17 2
    33   16   18 1
    34   18   32 1
    35   18   33 1
    36   19   20 1
    37   19   34 1
    38   20   35 1
    39   20   36 1
    40   21   37 1
    41   21   38 1
    42   21   39 1
@<TRIPOS>MOLECULE
ZINC63175587
   38    40     0     0     0
SMALL
USER_CHARGES

@<TRIPOS>ATOM
      1 C1         -1.1719   -2.4557    2.2795 C.ar      1 <0>         0.0473
      2 C2         -1.5569   -3.3734    3.2310 C.ar      1 <0>        -0.1569
      3 C3         -2.8086   -3.9734    3.1760 C.ar      1 <0>         0.2300
      4 C4         -3.6748   -3.6334    2.1389 C.ar      1 <0>        -0.1499
      5 C5         -3.2864   -2.7140    1.1851 C.ar      1 <0>         0.0895
      6 C6         -2.0371   -2.1217    1.2525 C.ar      1 <0>        -0.7075
      7 S1         -1.5490   -0.9476    0.0328 S.o2      1 <0>         2.6936
      8 O1         -2.6140   -0.0137   -0.0811 O.2       1 <0>        -0.9215
      9 O2         -0.2222   -0.5543    0.3556 O.2       1 <0>        -0.9412
     10 N1         -1.4661   -1.7498   -1.4136 N.pl3     1 <0>        -1.1338
     11 C7         -0.4820   -2.8183   -1.6032 C.3       1 <0>         0.1291
     12 H1          0.3335   -2.7055   -0.8889 H         1 <0>         0.1322
     13 C8         -1.1535   -4.1912   -1.4243 C.3       1 <0>        -0.1499
     14 C9         -0.9886   -4.9402   -2.7629 C.3       1 <0>        -0.1204
     15 C10        -0.7989   -3.8129   -3.8080 C.3       1 <0>        -0.1437
     16 C11         0.0684   -2.7801   -3.0439 C.3       1 <0>         0.0173
     17 H2          1.1173   -3.0763   -3.0595 H         1 <0>         0.1653
     18 N2         -0.0974   -1.4400   -3.6222 N.4       1 <0>        -0.6322
     19 Cl1        -4.3715   -2.2964   -0.1041 Cl        1 <0>        -0.0294
     20 N3         -2.9657   -4.8602    4.2418 N.am      1 <0>        -0.6584
     21 C12        -1.8804   -4.9023    5.0329 C.2       1 <0>         0.5296
     22 O3         -1.7396   -5.5824    6.0272 O.2       1 <0>        -0.4709
     23 C13        -0.8664   -3.9413    4.4497 C.3       1 <0>        -0.1174
     24 H3         -0.1975   -1.9937    2.3371 H         1 <0>         0.1621
     25 H4         -4.6517   -4.0903    2.0808 H         1 <0>         0.1529
     26 H5         -2.0692   -1.5122   -2.1352 H         1 <0>         0.4154
     27 H6         -0.6633   -4.7451   -0.6237 H         1 <0>         0.0942
     28 H7         -2.2116   -4.0625   -1.1964 H         1 <0>         0.0924
     29 H8         -0.1102   -5.5850   -2.7335 H         1 <0>         0.0870
     30 H9         -1.8827   -5.5219   -2.9872 H         1 <0>         0.0919
     31 H10        -0.2716   -4.1853   -4.6864 H         1 <0>         0.1035
     32 H11        -1.7592   -3.3796   -4.0875 H         1 <0>         0.0928
     33 H12         0.4041   -0.7673   -3.0617 H         1 <0>         0.4401
     34 H13         0.2671   -1.4322   -4.5631 H         1 <0>         0.4415
     35 H14        -3.7666   -5.3858    4.3943 H         1 <0>         0.4235
     36 H15         0.0412   -4.4720    4.1618 H         1 <0>         0.1360
     37 H16        -0.6369   -3.1492    5.1624 H         1 <0>         0.1372
     38 H17        -1.0772   -1.1998   -3.6392 H         1 <0>         0.4286
@<TRIPOS>BOND
     1    1    6 ar
     2    1    2 ar
     3    1   24 1
     4    2   23 1
     5    2    3 ar
     6    3    4 ar
     7    3   20 1
     8    4    5 ar
     9    4   25 1
    10    5    6 ar
    11    5   19 1
    12    6    7 1
    13    7    8 2
    14    7    9 2
    15    7   10 1
    16   10   11 1
    17   10   26 1
    18   11   12 1
    19   11   16 1
    20   11   13 1
    21   13   14 1
    22   13   27 1
    23   13   28 1
    24   14   15 1
    25   14   29 1
    26   14   30 1
    27   15   16 1
    28   15   31 1
    29   15   32 1
    30   16   17 1
    31   16   18 1
    32   18   33 1
    33   18   34 1
    34   18   38 1
    35   20   21 am
    36   20   35 1
    37   21   22 2
    38   21   23 1
    39   23   36 1
    40   23   37 1
@<TRIPOS>MOLECULE
ZINC00632662
   50    52     0     0     0
SMALL
USER_CHARGES
5-amino-1-[6-(3,4-dimethylphenoxy)-2-methylsulfanyl-pyrimidin-4-yl]-3-ethyl-pyrazole-4-carboxamide
@<TRIPOS>ATOM
      1 C1          7.8944   -0.6117    0.3968 C.3       1 <0>        -0.1480
      2 C2          7.0989   -1.1248   -0.8053 C.3       1 <0>        -0.0481
      3 C3          5.6427   -1.2356   -0.4336 C.2       1 <0>         0.1741
      4 C4          5.0134   -2.3770    0.1180 C.2       1 <0>        -0.3659
      5 C5          3.6737   -2.0498    0.3128 C.2       1 <0>         0.4413
      6 N1          3.5120   -0.7705   -0.1143 N.pl3     1 <0>        -0.3461
      7 N2          4.7489   -0.2973   -0.5655 N.2       1 <0>        -0.2894
      8 C6          2.3179   -0.0497   -0.0999 C.ar      1 <0>         0.4651
      9 C7          2.3345    1.3403   -0.0503 C.ar      1 <0>        -0.2392
     10 C8          1.1197    2.0176   -0.0377 C.ar      1 <0>         0.3993
     11 N3         -0.0107    1.3198   -0.0727 N.ar      1 <0>        -0.5729
     12 C9          0.0106   -0.0044   -0.1191 C.ar      1 <0>         0.3643
     13 N4          1.1492   -0.6821   -0.1329 N.ar      1 <0>        -0.5561
     14 S1         -1.5141   -0.8864   -0.1642 S.3       1 <0>         0.0289
     15 C10        -2.6793    0.4981   -0.1262 C.3       1 <0>        -0.1456
     16 O1          1.0892    3.3718    0.0093 O.3       1 <0>        -0.2304
     17 C11        -0.1196    3.9863   -0.0809 C.ar      1 <0>         0.0789
     18 C12        -0.9705    4.0105    1.0151 C.ar      1 <0>        -0.1093
     19 C13        -2.1965    4.6398    0.9222 C.ar      1 <0>        -0.1042
     20 C14        -2.5807    5.2364   -0.2647 C.ar      1 <0>        -0.0759
     21 C15        -1.7371    5.2092   -1.3596 C.ar      1 <0>        -0.0738
     22 C16        -0.5074    4.5855   -1.2704 C.ar      1 <0>        -0.1080
     23 C17        -2.1588    5.8607   -2.6514 C.3       1 <0>        -0.1194
     24 C18        -3.9215    5.9169   -0.3651 C.3       1 <0>        -0.1210
     25 N5          2.6966   -2.8698    0.8365 N.pl3     1 <0>        -0.8218
     26 C19         5.6530   -3.6602    0.4320 C.2       1 <0>         0.6105
     27 O2          6.1388   -3.8448    1.5323 O.2       1 <0>        -0.5350
     28 N6          5.7024   -4.6340   -0.4985 N.am      1 <0>        -0.8477
     29 H1          8.9477   -0.5315    0.1280 H         1 <0>         0.0672
     30 H2          7.5185    0.3686    0.6896 H         1 <0>         0.0598
     31 H3          7.7837   -1.3067    1.2291 H         1 <0>         0.0639
     32 H4          7.4748   -2.1051   -1.0980 H         1 <0>         0.0860
     33 H5          7.2096   -0.4298   -1.6376 H         1 <0>         0.0883
     34 H6          3.2690    1.8811   -0.0230 H         1 <0>         0.1688
     35 H7         -2.5283    1.0752    0.7861 H         1 <0>         0.0930
     36 H8         -2.5119    1.1378   -0.9927 H         1 <0>         0.0926
     37 H9         -3.6996    0.1150   -0.1491 H         1 <0>         0.1107
     38 H10        -0.6726    3.5412    1.9410 H         1 <0>         0.1255
     39 H11        -2.8575    4.6621    1.7760 H         1 <0>         0.1308
     40 H12         0.1511    4.5642   -2.1261 H         1 <0>         0.1302
     41 H13        -2.6863    5.1342   -3.2695 H         1 <0>         0.0742
     42 H14        -2.8182    6.7014   -2.4359 H         1 <0>         0.0753
     43 H15        -1.2768    6.2177   -3.1831 H         1 <0>         0.0686
     44 H16        -4.6705    5.1971   -0.6953 H         1 <0>         0.0746
     45 H17        -4.2026    6.3116    0.6113 H         1 <0>         0.0690
     46 H18        -3.8613    6.7342   -1.0838 H         1 <0>         0.0737
     47 H19         1.7876   -2.5437    0.9279 H         1 <0>         0.4176
     48 H20         2.9182   -3.7726    1.1135 H         1 <0>         0.4196
     49 H21         5.3152   -4.4868   -1.3756 H         1 <0>         0.4028
     50 H22         6.1251   -5.4820   -0.2910 H         1 <0>         0.4028
@<TRIPOS>BOND
     1    1    2 1
     2    1   29 1
     3    1   30 1
     4    1   31 1
     5    2    3 1
     6    2   32 1
     7    2   33 1
     8    3    7 2
     9    3    4 1
    10    4    5 2
    11    4   26 1
    12    5    6 1
    13    5   25 1
    14    6    7 1
    15    6    8 1
    16    8   13 ar
    17    8    9 ar
    18    9   10 ar
    19    9   34 1
    20   10   11 ar
    21   10   16 1
    22   11   12 ar
    23   12   13 ar
    24   12   14 1
    25   14   15 1
    26   15   35 1
    27   15   36 1
    28   15   37 1
    29   16   17 1
    30   17   22 ar
    31   17   18 ar
    32   18   19 ar
    33   18   38 1
    34   19   20 ar
    35   19   39 1
    36   20   21 ar
    37   20   24 1
    38   21   22 ar
    39   21   23 1
    40   22   40 1
    41   23   41 1
    42   23   42 1
    43   23   43 1
    44   24   44 1
    45   24   45 1
    46   24   46 1
    47   25   47 1
    48   25   48 1
    49   26   27 2
    50   26   28 am
    51   28   49 1
    52   28   50 1
@<TRIPOS>MOLECULE
ZINC05612694
   42    43     0     0     0
SMALL
USER_CHARGES
N-[[3-[(2-chloro-5-nitro-phenyl)amino]-1-methyl-3-oxo-propylidene]amino]-2-hydroxy-benzamide
@<TRIPOS>ATOM
      1 C1          4.8691    5.2304    0.2748 C.3       1 <0>        -0.1127
      2 C2          3.7098    6.1925    0.3142 C.2       1 <0>         0.2612
      3 N1          3.9248    7.4497    0.4235 N.pl3     1 <0>        -0.4456
      4 N2          5.2379    7.9312    0.5066 N.am      1 <0>        -0.5599
      5 C3          5.4642    9.2548    0.6217 C.2       1 <0>         0.5688
      6 O1          4.5288   10.0312    0.6537 O.2       1 <0>        -0.5139
      7 C4          6.8466    9.7616    0.7090 C.ar      1 <0>        -0.1841
      8 C5          7.9243    8.8727    0.6786 C.ar      1 <0>        -0.0456
      9 C6          9.2135    9.3532    0.7553 C.ar      1 <0>        -0.1688
     10 C7          9.4465   10.7139    0.8732 C.ar      1 <0>        -0.0430
     11 C8          8.3908   11.6027    0.9103 C.ar      1 <0>        -0.2232
     12 C9          7.0867   11.1374    0.8290 C.ar      1 <0>         0.2243
     13 O2          6.0484   12.0095    0.8657 O.3       1 <0>        -0.4753
     14 C10         2.2974    5.6746    0.2249 C.2       1 <0>        -0.4459
     15 C11         2.3198    4.1727    0.1036 C.2       1 <0>         0.5686
     16 O3          3.3785    3.5810    0.0909 O.2       1 <0>        -0.5574
     17 N3          1.1634    3.4869    0.0092 N.am      1 <0>        -0.6884
     18 C12         1.1791    2.0873   -0.0090 C.ar      1 <0>         0.1835
     19 C13         2.2224    1.4112   -0.6273 C.ar      1 <0>        -0.0579
     20 C14         2.2349    0.0302   -0.6440 C.ar      1 <0>        -0.0211
     21 C15         1.2097   -0.6799   -0.0462 C.ar      1 <0>        -0.0717
     22 C16         0.1688   -0.0105    0.5702 C.ar      1 <0>        -0.0872
     23 C17         0.1500    1.3715    0.5906 C.ar      1 <0>        -0.0326
     24 Cl1        -1.1611    2.2118    1.3579 Cl        1 <0>        -0.0358
     25 N4          3.3469   -0.6909   -1.3031 N.pl3     1 <0>         0.0275
     26 O4          3.3586   -1.9087   -1.3187 O.2       1 <0>        -0.1559
     27 O5          4.2502   -0.0664   -1.8299 O.3       1 <0>        -0.1495
     28 H1          5.8129    5.7901    0.3518 H         1 <0>         0.0340
     29 H2          4.8501    4.6721   -0.6728 H         1 <0>         0.1147
     30 H3          4.7903    4.5267    1.1166 H         1 <0>         0.1128
     31 H4          6.0841    7.2289    0.4778 H         1 <0>         0.4502
     32 H5          7.7471    7.8109    0.5912 H         1 <0>         0.1280
     33 H6         10.0458    8.6656    0.7278 H         1 <0>         0.1347
     34 H7         10.4600   11.0812    0.9369 H         1 <0>         0.1336
     35 H8          8.5806   12.6619    1.0031 H         1 <0>         0.1380
     36 H9          6.2397   13.0887    0.9598 H         1 <0>         0.4361
     37 H10         1.4512    6.3769    0.2537 H         1 <0>         0.1482
     38 H11         3.0786    8.1519    0.4523 H         1 <0>         0.4719
     39 H12         0.2072    4.0271   -0.0535 H         1 <0>         0.4391
     40 H13         3.0231    1.9646   -1.0951 H         1 <0>         0.1789
     41 H14         1.2221   -1.7597   -0.0612 H         1 <0>         0.1618
     42 H15        -0.6305   -0.5679    1.0359 H         1 <0>         0.1598
@<TRIPOS>BOND
     1    1   28 1
     2    1   29 1
     3    1   30 1
     4    1    2 1
     5    2   14 2
     6    2    3 1
     7    3    4 1
     8    3   38 1
     9    4    5 am
    10    4   31 1
    11    5    6 2
    12    5    7 1
    13    7   12 ar
    14    7    8 ar
    15    8    9 ar
    16    8   32 1
    17    9   10 ar
    18    9   33 1
    19   10   11 ar
    20   10   34 1
    21   11   12 ar
    22   11   35 1
    23   12   13 1
    24   13   36 1
    25   14   15 1
    26   14   37 1
    27   15   16 2
    28   15   17 am
    29   17   18 1
    30   17   39 1
    31   18   23 ar
    32   18   19 ar
    33   19   20 ar
    34   19   40 1
    35   20   21 ar
    36   20   25 1
    37   21   22 ar
    38   21   41 1
    39   22   23 ar
    40   22   42 1
    41   23   24 1
    42   25   26 2
    43   25   27 1
@<TRIPOS>MOLECULE
ZINC36526212
   64    65     0     0     0
SMALL
USER_CHARGES

@<TRIPOS>ATOM
      1 C1          4.1786   -1.9540   -1.2630 C.3       1 <0>        -0.1542
      2 C2          3.5390   -3.2862   -0.8666 C.3       1 <0>        -0.1265
      3 C3          2.0398   -3.2420   -1.1683 C.3       1 <0>        -0.1206
      4 C4          1.4002   -4.5742   -0.7719 C.3       1 <0>        -0.1173
      5 C5         -0.0991   -4.5300   -1.0736 C.3       1 <0>        -0.1006
      6 C6         -0.7289   -5.8422   -0.6831 C.2       1 <0>        -0.0566
      7 C7         -1.7603   -5.8610    0.1564 C.2       1 <0>        -0.2176
      8 C8         -2.3751   -7.1418    0.5376 C.2       1 <0>         0.5590
      9 O1         -1.9404   -8.1836    0.0850 O.2       1 <0>        -0.5530
     10 N1         -3.4202   -7.1609    1.3883 N.am      1 <0>        -0.5773
     11 C9         -3.9439   -5.9060    1.9335 C.3       1 <0>         0.0868
     12 C10        -4.0326   -8.4365    1.7679 C.3       1 <0>         0.1786
     13 H1         -3.6326   -9.2326    1.1400 H         1 <0>         0.1239
     14 C11        -5.5256   -8.3521    1.5818 C.ar      1 <0>        -0.1599
     15 C12        -6.3754   -8.8482    2.5590 C.ar      1 <0>         0.1509
     16 C13        -7.7493   -8.7706    2.3877 C.ar      1 <0>        -0.1807
     17 C14        -8.2735   -8.1963    1.2395 C.ar      1 <0>         0.1493
     18 C15        -7.4238   -7.6993    0.2627 C.ar      1 <0>        -0.1821
     19 C16        -6.0499   -7.7731    0.4359 C.ar      1 <0>         0.1678
     20 O2         -5.2173   -7.2819   -0.5191 O.3       1 <0>        -0.4831
     21 O3         -9.6199   -8.1210    1.0713 O.3       1 <0>        -0.4937
     22 O4         -5.8616   -9.4110    3.6842 O.3       1 <0>        -0.4770
     23 C17        -3.7224   -8.7324    3.2127 C.2       1 <0>         0.5287
     24 O5         -3.5589   -7.8215    3.9967 O.2       1 <0>        -0.5451
     25 N2         -3.6266  -10.0091    3.6336 N.am      1 <0>        -0.7040
     26 C18        -3.3849  -10.2975    5.0494 C.3       1 <0>         0.1555
     27 C19        -1.8819  -10.2461    5.3311 C.3       1 <0>        -0.1310
     28 C20        -1.6295  -10.5473    6.8097 C.3       1 <0>        -0.1163
     29 C21        -2.1638  -11.9413    7.1447 C.3       1 <0>        -0.1229
     30 C22        -3.6668  -11.9926    6.8631 C.3       1 <0>        -0.1157
     31 C23        -3.9192  -11.6915    5.3844 C.3       1 <0>        -0.1249
     32 H2          5.2467   -1.9855   -1.0481 H         1 <0>         0.0537
     33 H3          4.0273   -1.7813   -2.3286 H         1 <0>         0.0536
     34 H4          3.7172   -1.1462   -0.6949 H         1 <0>         0.0535
     35 H5          4.0004   -4.0940   -1.4347 H         1 <0>         0.0613
     36 H6          3.6903   -3.4590    0.1990 H         1 <0>         0.0610
     37 H7          1.5784   -2.4342   -0.6002 H         1 <0>         0.0624
     38 H8          1.8885   -3.0693   -2.2339 H         1 <0>         0.0629
     39 H9          1.8616   -5.3820   -1.3400 H         1 <0>         0.0663
     40 H10         1.5515   -4.7470    0.2937 H         1 <0>         0.0647
     41 H11        -0.5604   -3.7222   -0.5055 H         1 <0>         0.0728
     42 H12        -0.2503   -4.3573   -2.1392 H         1 <0>         0.0835
     43 H13        -0.3429   -6.7673   -1.0850 H         1 <0>         0.1256
     44 H14        -2.1463   -4.9359    0.5583 H         1 <0>         0.1279
     45 H15        -4.6495   -5.4692    1.2267 H         1 <0>         0.0571
     46 H16        -4.4511   -6.1037    2.8778 H         1 <0>         0.0806
     47 H17        -3.1209   -5.2114    2.1015 H         1 <0>         0.0697
     48 H18        -8.4110   -9.1576    3.1485 H         1 <0>         0.1412
     49 H19        -7.8321   -7.2524   -0.6317 H         1 <0>         0.1414
     50 H20        -4.9709   -7.9271   -1.1959 H         1 <0>         0.3955
     51 H21       -10.0151   -7.3101    1.4197 H         1 <0>         0.3978
     52 H22        -5.8034   -8.8052    4.4357 H         1 <0>         0.3950
     53 H23        -3.7177  -10.7371    2.9990 H         1 <0>         0.3993
     54 H24        -3.8952   -9.5555    5.6636 H         1 <0>         0.0835
     55 H25        -1.3716  -10.9881    4.7169 H         1 <0>         0.0622
     56 H26        -1.5013   -9.2530    5.0924 H         1 <0>         0.0657
     57 H27        -0.5588  -10.5107    7.0104 H         1 <0>         0.0636
     58 H28        -2.1398   -9.8053    7.4239 H         1 <0>         0.0632
     59 H29        -1.6535  -12.6832    6.5306 H         1 <0>         0.0622
     60 H30        -1.9840  -12.1558    8.1982 H         1 <0>         0.0632
     61 H31        -4.0475  -12.9857    7.1018 H         1 <0>         0.0661
     62 H32        -4.1771  -11.2507    7.4773 H         1 <0>         0.0639
     63 H33        -4.9900  -11.7281    5.1838 H         1 <0>         0.0734
     64 H34        -3.4089  -12.4334    4.7703 H         1 <0>         0.0655
@<TRIPOS>BOND
     1    1    2 1
     2    1   32 1
     3    1   33 1
     4    1   34 1
     5    2    3 1
     6    2   35 1
     7    2   36 1
     8    3    4 1
     9    3   37 1
    10    3   38 1
    11    4    5 1
    12    4   39 1
    13    4   40 1
    14    5    6 1
    15    5   41 1
    16    5   42 1
    17    6    7 2
    18    6   43 1
    19    7    8 1
    20    7   44 1
    21    8    9 2
    22    8   10 am
    23   10   11 1
    24   10   12 1
    25   11   45 1
    26   11   46 1
    27   11   47 1
    28   12   13 1
    29   12   14 1
    30   12   23 1
    31   14   19 ar
    32   14   15 ar
    33   15   16 ar
    34   15   22 1
    35   16   17 ar
    36   16   48 1
    37   17   18 ar
    38   17   21 1
    39   18   19 ar
    40   18   49 1
    41   19   20 1
    42   20   50 1
    43   21   51 1
    44   22   52 1
    45   23   24 2
    46   23   25 am
    47   25   26 1
    48   25   53 1
    49   26   31 1
    50   26   27 1
    51   26   54 1
    52   27   28 1
    53   27   55 1
    54   27   56 1
    55   28   29 1
    56   28   57 1
    57   28   58 1
    58   29   30 1
    59   29   59 1
    60   29   60 1
    61   30   31 1
    62   30   61 1
    63   30   62 1
    64   31   63 1
    65   31   64 1
@<TRIPOS>MOLECULE
ZINC40755959
   55    57     0     0     0
SMALL
USER_CHARGES

@<TRIPOS>ATOM
      1 C1          0.5879   -2.6121    2.2531 C.3       1 <0>        -0.1526
      2 C2          0.2849   -1.8054    0.9889 C.3       1 <0>         0.0611
      3 O1          0.9640   -2.3907   -0.1238 O.3       1 <0>        -0.3495
      4 C3          0.8007   -1.7959   -1.3220 C.2       1 <0>         0.5119
      5 O2          0.1009   -0.8073   -1.4192 O.2       1 <0>        -0.5108
      6 C4          1.4710   -2.3445   -2.5146 C.ar      1 <0>        -0.1577
      7 C5          2.2723   -3.4856   -2.4055 C.ar      1 <0>        -0.0356
      8 C6          2.8945   -3.9933   -3.5168 C.ar      1 <0>        -0.1342
      9 C7          2.7297   -3.3739   -4.7529 C.ar      1 <0>         0.2118
     10 C8          1.9331   -2.2375   -4.8649 C.ar      1 <0>        -0.1725
     11 C9          1.3027   -1.7285   -3.7588 C.ar      1 <0>        -0.0268
     12 N1          3.3628   -3.8914   -5.8784 N.pl3     1 <0>        -0.6543
     13 C10         3.5578   -5.2633   -5.9975 C.ar      1 <0>         0.3808
     14 C11         4.2928   -5.7849   -7.0635 C.ar      1 <0>         0.0076
     15 C12         4.4587   -7.1695   -7.1349 C.ar      1 <0>         0.4090
     16 N2          3.9138   -7.9334   -6.1912 N.ar      1 <0>        -0.5638
     17 C13         3.2269   -7.4003   -5.2011 C.ar      1 <0>         0.3246
     18 N3          3.0512   -6.0988   -5.0938 N.ar      1 <0>        -0.5588
     19 N4          5.1811   -7.7409   -8.1756 N.pl3     1 <0>        -0.7178
     20 C14         5.3480   -9.1949   -8.2395 C.3       1 <0>         0.1420
     21 C15         6.1771   -9.5594   -9.4727 C.3       1 <0>        -0.1003
     22 C16         6.3488  -11.0551   -9.5384 C.2       1 <0>        -0.1205
     23 C17         5.5205  -11.7296  -10.2695 C.2       1 <0>        -0.1461
     24 C18         5.5586  -13.2217  -10.4247 C.3       1 <0>        -0.0917
     25 C19         6.9157  -13.7643   -9.9714 C.3       1 <0>        -0.1220
     26 C20         7.2383  -13.1741   -8.5928 C.3       1 <0>        -0.1208
     27 C21         7.4731  -11.6693   -8.7569 C.3       1 <0>        -0.0832
     28 N5          4.8496   -4.9406   -8.0372 N.pl3     1 <0>        -0.8756
     29 H1          0.2478   -3.6390    2.1191 H         1 <0>         0.0674
     30 H2          1.6619   -2.6065    2.4390 H         1 <0>         0.0669
     31 H3          0.0699   -2.1657    3.1019 H         1 <0>         0.0800
     32 H4         -0.7892   -1.8111    0.8030 H         1 <0>         0.0680
     33 H5          0.6250   -0.7785    1.1229 H         1 <0>         0.0678
     34 H6          2.4010   -3.9661   -1.4469 H         1 <0>         0.1397
     35 H7          3.5133   -4.8745   -3.4333 H         1 <0>         0.1457
     36 H8          1.8077   -1.7592   -5.8251 H         1 <0>         0.1322
     37 H9          0.6808   -0.8499   -3.8473 H         1 <0>         0.1392
     38 H10         3.6682   -3.2954   -6.5801 H         1 <0>         0.4151
     39 H11         2.7983   -8.0498   -4.4523 H         1 <0>         0.1977
     40 H12         5.5747   -7.1769   -8.8596 H         1 <0>         0.4030
     41 H13         5.8602   -9.5416   -7.3419 H         1 <0>         0.0678
     42 H14         4.3695   -9.6704   -8.3060 H         1 <0>         0.0672
     43 H15         5.6649   -9.2127  -10.3702 H         1 <0>         0.0720
     44 H16         7.1556   -9.0839   -9.4061 H         1 <0>         0.0736
     45 H17         4.7541  -11.1846  -10.8006 H         1 <0>         0.1024
     46 H18         4.7703  -13.6683   -9.8187 H         1 <0>         0.0744
     47 H19         5.3974  -13.4804  -11.4713 H         1 <0>         0.0709
     48 H20         6.8715  -14.8513   -9.9034 H         1 <0>         0.0651
     49 H21         7.6850  -13.4698  -10.6852 H         1 <0>         0.0635
     50 H22         6.4016  -13.3462   -7.9157 H         1 <0>         0.0660
     51 H23         8.1382  -13.6430   -8.1949 H         1 <0>         0.0656
     52 H24         8.4127  -11.5019   -9.2834 H         1 <0>         0.0725
     53 H25         7.5251  -11.2043   -7.7724 H         1 <0>         0.0714
     54 H26         4.7259   -3.9805   -7.9747 H         1 <0>         0.3947
     55 H27         5.3580   -5.3173   -8.7724 H         1 <0>         0.3961
@<TRIPOS>BOND
     1    1    2 1
     2    1   29 1
     3    1   30 1
     4    1   31 1
     5    2    3 1
     6    2   32 1
     7    2   33 1
     8    3    4 1
     9    4    5 2
    10    4    6 1
    11    6   11 ar
    12    6    7 ar
    13    7    8 ar
    14    7   34 1
    15    8    9 ar
    16    8   35 1
    17    9   10 ar
    18    9   12 1
    19   10   11 ar
    20   10   36 1
    21   11   37 1
    22   12   13 1
    23   12   38 1
    24   13   18 ar
    25   13   14 ar
    26   14   15 ar
    27   14   28 1
    28   15   16 ar
    29   15   19 1
    30   16   17 ar
    31   17   18 ar
    32   17   39 1
    33   19   20 1
    34   19   40 1
    35   20   21 1
    36   20   41 1
    37   20   42 1
    38   21   22 1
    39   21   43 1
    40   21   44 1
    41   22   27 1
    42   22   23 2
    43   23   24 1
    44   23   45 1
    45   24   25 1
    46   24   46 1
    47   24   47 1
    48   25   26 1
    49   25   48 1
    50   25   49 1
    51   26   27 1
    52   26   50 1
    53   26   51 1
    54   27   52 1
    55   27   53 1
    56   28   54 1
    57   28   55 1
@<TRIPOS>MOLECULE
ZINC58159951
   54    56     0     0     0
SMALL
USER_CHARGES

@<TRIPOS>ATOM
      1 C1          2.9956   -3.9539    1.0411 C.3       1 <0>        -0.1611
      2 C2          3.5216   -2.6592    1.6640 C.3       1 <0>         0.2075
      3 H1          4.0681   -2.8917    2.5780 H         1 <0>         0.1019
      4 C3          4.4423   -1.9708    0.6896 C.ar      1 <0>        -0.1036
      5 C4          3.9155   -1.2146   -0.3410 C.ar      1 <0>        -0.0829
      6 C5          4.7566   -0.5823   -1.2366 C.ar      1 <0>        -0.1771
      7 C6          6.1311   -0.7058   -1.1016 C.ar      1 <0>         0.0995
      8 C7          6.6590   -1.4655   -0.0654 C.ar      1 <0>         0.0757
      9 C8          5.8122   -2.0919    0.8313 C.ar      1 <0>        -0.1015
     10 F1          7.9977   -1.5881    0.0695 F         1 <0>        -0.1283
     11 O1          6.9604   -0.0848   -1.9819 O.3       1 <0>        -0.3082
     12 C9          6.3475    0.6790   -3.0225 C.3       1 <0>         0.0249
     13 N1          2.3958   -1.7764    1.9793 N.am      1 <0>        -0.7363
     14 C10         1.7352   -1.9170    3.1456 C.2       1 <0>         0.7063
     15 O2          2.0736   -2.7766    3.9361 O.2       1 <0>        -0.5683
     16 N2          0.6995   -1.1049    3.4356 N.am      1 <0>        -0.6846
     17 C11        -0.0472   -1.3120    4.6010 C.ar      1 <0>         0.1788
     18 C12        -1.4155   -1.0709    4.6022 C.ar      1 <0>        -0.1584
     19 C13        -2.1532   -1.2751    5.7522 C.ar      1 <0>        -0.0821
     20 C14        -1.5333   -1.7196    6.9044 C.ar      1 <0>        -0.1326
     21 C15        -0.1658   -1.9629    6.9094 C.ar      1 <0>         0.1763
     22 C16         0.5772   -1.7637    5.7544 C.ar      1 <0>        -0.1443
     23 N3          0.4613   -2.4125    8.0768 N.am      1 <0>        -0.6792
     24 C17        -0.1876   -3.2488    8.9110 C.2       1 <0>         0.7056
     25 O3         -1.3463   -3.5463    8.6937 O.2       1 <0>        -0.5523
     26 N4          0.4479   -3.7554    9.9862 N.am      1 <0>        -0.6829
     27 C18        -0.1870   -4.7098   10.7889 C.ar      1 <0>         0.1616
     28 C19        -1.0350   -5.6482   10.2155 C.ar      1 <0>        -0.1180
     29 C20        -1.6598   -6.5891   11.0104 C.ar      1 <0>        -0.0998
     30 C21        -1.4417   -6.5974   12.3759 C.ar      1 <0>        -0.1348
     31 C22        -0.5979   -5.6643   12.9499 C.ar      1 <0>        -0.1005
     32 C23         0.0340   -4.7240   12.1598 C.ar      1 <0>        -0.1459
     33 H2          2.4491   -3.7214    0.1270 H         1 <0>         0.0598
     34 H3          3.8332   -4.6107    0.8065 H         1 <0>         0.0710
     35 H4          2.3297   -4.4518    1.7458 H         1 <0>         0.0689
     36 H5          2.8449   -1.1182   -0.4465 H         1 <0>         0.1311
     37 H6          4.3437    0.0075   -2.0416 H         1 <0>         0.1414
     38 H7          6.2214   -2.6793    1.6400 H         1 <0>         0.1471
     39 H8          5.7411    1.4710   -2.5829 H         1 <0>         0.0591
     40 H9          7.1198    1.1201   -3.6526 H         1 <0>         0.1057
     41 H10         5.7140    0.0287   -3.6257 H         1 <0>         0.0594
     42 H11         2.1259   -1.0906    1.3486 H         1 <0>         0.3968
     43 H12         0.4716   -0.3768    2.8366 H         1 <0>         0.4080
     44 H13        -1.9028   -0.7231    3.7034 H         1 <0>         0.1262
     45 H14        -3.2166   -1.0867    5.7507 H         1 <0>         0.1310
     46 H15        -2.1126   -1.8776    7.8020 H         1 <0>         0.1419
     47 H16         1.6399   -1.9557    5.7548 H         1 <0>         0.1445
     48 H17         1.3631   -2.1224    8.2855 H         1 <0>         0.4088
     49 H18         1.3453   -3.4584   10.2036 H         1 <0>         0.4084
     50 H19        -1.2060   -5.6420    9.1491 H         1 <0>         0.1339
     51 H20        -2.3196   -7.3189   10.5651 H         1 <0>         0.1261
     52 H21        -1.9317   -7.3339   12.9953 H         1 <0>         0.1238
     53 H22        -0.4296   -5.6733   14.0167 H         1 <0>         0.1267
     54 H23         0.6964   -3.9984   12.6081 H         1 <0>         0.1250
@<TRIPOS>BOND
     1    1    2 1
     2    1   33 1
     3    1   34 1
     4    1   35 1
     5    2    3 1
     6    2    4 1
     7    2   13 1
     8    4    9 ar
     9    4    5 ar
    10    5    6 ar
    11    5   36 1
    12    6    7 ar
    13    6   37 1
    14    7    8 ar
    15    7   11 1
    16    8    9 ar
    17    8   10 1
    18    9   38 1
    19   11   12 1
    20   12   39 1
    21   12   40 1
    22   12   41 1
    23   13   14 am
    24   13   42 1
    25   14   15 2
    26   14   16 am
    27   16   17 1
    28   16   43 1
    29   17   22 ar
    30   17   18 ar
    31   18   19 ar
    32   18   44 1
    33   19   20 ar
    34   19   45 1
    35   20   21 ar
    36   20   46 1
    37   21   22 ar
    38   21   23 1
    39   22   47 1
    40   23   24 am
    41   23   48 1
    42   24   25 2
    43   24   26 am
    44   26   27 1
    45   26   49 1
    46   27   32 ar
    47   27   28 ar
    48   28   29 ar
    49   28   50 1
    50   29   30 ar
    51   29   51 1
    52   30   31 ar
    53   30   52 1
    54   31   32 ar
    55   31   53 1
    56   32   54 1
@<TRIPOS>MOLECULE
ZINC67300046
   50    53     0     0     0
SMALL
USER_CHARGES

@<TRIPOS>ATOM
      1 C1         -0.0187    1.5258    0.0104 C.3       1 <0>        -0.1528
      2 C2          0.0021   -0.0041    0.0020 C.3       1 <0>         0.0564
      3 O1          0.6932   -0.4774    1.1597 O.3       1 <0>        -0.3468
      4 C3          0.8012   -1.8148    1.3046 C.2       1 <0>         0.5597
      5 O2          0.3208   -2.5582    0.4693 O.2       1 <0>        -0.4934
      6 C4          1.4738   -2.3533    2.4290 C.2       1 <0>        -0.3267
      7 C5          0.8845   -2.7168    3.7367 C.ar      1 <0>        -0.0315
      8 C6         -0.4040   -2.6585    4.2561 C.ar      1 <0>        -0.0617
      9 C7         -0.6499   -3.0831    5.5522 C.ar      1 <0>         0.0595
     10 C8          0.4093   -3.5709    6.3321 C.ar      1 <0>        -0.0228
     11 C9          1.7085   -3.6325    5.8150 C.ar      1 <0>         0.0069
     12 C10         1.9500   -3.2023    4.5072 C.ar      1 <0>         0.0698
     13 O3          3.0727   -3.1450    3.7581 O.3       1 <0>        -0.1902
     14 C11         2.8231   -2.6573    2.5350 C.2       1 <0>         0.4078
     15 N1          3.7563   -2.4827    1.5443 N.pl3     1 <0>        -0.8075
     16 C12         2.8194   -4.1488    6.6478 C.ar      1 <0>        -0.0572
     17 C13         3.2101   -3.4626    7.7973 C.ar      1 <0>        -0.0885
     18 C14         4.2453   -3.9489    8.5693 C.ar      1 <0>        -0.1175
     19 C15         4.8955   -5.1143    8.2047 C.ar      1 <0>        -0.1138
     20 C16         4.5125   -5.7994    7.0655 C.ar      1 <0>        -0.1214
     21 C17         3.4749   -5.3262    6.2886 C.ar      1 <0>        -0.0932
     22 C18        -0.1877   -3.9304    7.6346 C.2       1 <0>        -0.3217
     23 C19        -1.5377   -3.6285    7.5185 C.2       1 <0>         0.4066
     24 O4         -1.7783   -3.1367    6.2953 O.3       1 <0>        -0.1953
     25 N2         -2.4778   -3.8056    8.5016 N.pl3     1 <0>        -0.8073
     26 C20         0.4772   -4.4697    8.7639 C.2       1 <0>         0.5617
     27 O5          0.9502   -3.7267    9.6038 O.2       1 <0>        -0.4913
     28 O6          0.5859   -5.8070    8.9081 O.3       1 <0>        -0.3454
     29 C21         1.2687   -6.2809   10.0705 C.3       1 <0>         0.0592
     30 C22         1.2916   -7.8107   10.0605 C.3       1 <0>        -0.1516
     31 H1          1.0039    1.9031    0.0027 H         1 <0>         0.0662
     32 H2         -0.5459    1.8868   -0.8726 H         1 <0>         0.0799
     33 H3         -0.5289    1.8773    0.9072 H         1 <0>         0.0674
     34 H4         -1.0205   -0.3814    0.0098 H         1 <0>         0.0688
     35 H5          0.5123   -0.3556   -0.8948 H         1 <0>         0.0676
     36 H6         -1.2138   -2.2816    3.6491 H         1 <0>         0.1413
     37 H7          3.4896   -2.1196    0.6853 H         1 <0>         0.4313
     38 H8          4.6827   -2.7225    1.7029 H         1 <0>         0.4172
     39 H9          2.7036   -2.5524    8.0826 H         1 <0>         0.1257
     40 H10         4.5487   -3.4184    9.4597 H         1 <0>         0.1240
     41 H11         5.7057   -5.4905    8.8117 H         1 <0>         0.1224
     42 H12         5.0241   -6.7084    6.7857 H         1 <0>         0.1242
     43 H13         3.1738   -5.8643    5.4019 H         1 <0>         0.1218
     44 H14        -2.2170   -4.1693    9.3622 H         1 <0>         0.4313
     45 H15        -3.4034   -3.5673    8.3361 H         1 <0>         0.4172
     46 H16         2.2908   -5.9022   10.0711 H         1 <0>         0.0681
     47 H17         0.7511   -5.9311   10.9638 H         1 <0>         0.0649
     48 H18         1.8124   -8.1721   10.9471 H         1 <0>         0.0787
     49 H19         0.2695   -8.1893   10.0599 H         1 <0>         0.0652
     50 H20         1.8091   -8.1604    9.1672 H         1 <0>         0.0668
@<TRIPOS>BOND
     1    1    2 1
     2    1   31 1
     3    1   32 1
     4    1   33 1
     5    2    3 1
     6    2   34 1
     7    2   35 1
     8    3    4 1
     9    4    5 2
    10    4    6 1
    11    6   14 2
    12    6    7 1
    13    7   12 ar
    14    7    8 ar
    15    8    9 ar
    16    8   36 1
    17    9   24 1
    18    9   10 ar
    19   10   11 ar
    20   10   22 1
    21   11   12 ar
    22   11   16 1
    23   12   13 1
    24   13   14 1
    25   14   15 1
    26   15   37 1
    27   15   38 1
    28   16   21 ar
    29   16   17 ar
    30   17   18 ar
    31   17   39 1
    32   18   19 ar
    33   18   40 1
    34   19   20 ar
    35   19   41 1
    36   20   21 ar
    37   20   42 1
    38   21   43 1
    39   22   23 2
    40   22   26 1
    41   23   24 1
    42   23   25 1
    43   25   44 1
    44   25   45 1
    45   26   27 2
    46   26   28 1
    47   28   29 1
    48   29   30 1
    49   29   46 1
    50   29   47 1
    51   30   48 1
    52   30   49 1
    53   30   50 1
@<TRIPOS>MOLECULE
ZINC37626718
   38    38     0     0     0
SMALL
USER_CHARGES

@<TRIPOS>ATOM
      1 C1         -0.1174    1.5321   -0.3029 C.3       1 <0>        -0.0749
      2 C2         -0.0655    0.0289   -0.2100 C.2       1 <0>        -0.1334
      3 C3         -1.0885   -0.8587   -0.1543 C.2       1 <0>        -0.1646
      4 C4         -0.8012   -2.2083   -0.0718 C.2       1 <0>        -0.1419
      5 C5          0.4950   -2.6042   -0.0491 C.2       1 <0>        -0.1313
      6 S1          1.3591   -1.0455   -0.1527 S.3       1 <0>         0.0581
      7 C6          1.0599   -3.9987    0.0358 C.3       1 <0>        -0.0773
      8 C7         -1.9124   -3.2242   -0.0076 C.3       1 <0>         0.2033
      9 H1         -1.5972   -4.0693    0.6042 H         1 <0>         0.1015
     10 C8         -2.2402   -3.7115   -1.4204 C.3       1 <0>        -0.1585
     11 N1         -3.1027   -2.6092    0.5852 N.am      1 <0>        -0.7117
     12 C9         -4.0000   -3.3721    1.2403 C.2       1 <0>         0.5096
     13 O1         -3.8222   -4.5677    1.3390 O.2       1 <0>        -0.5355
     14 C10        -5.2244   -2.7395    1.8501 C.3       1 <0>         0.0944
     15 N2         -6.0351   -3.7720    2.5002 N.am      1 <0>        -0.6898
     16 C11        -7.1855   -3.4365    3.1171 C.2       1 <0>         0.4981
     17 O2         -7.5495   -2.2797    3.1339 O.2       1 <0>        -0.5299
     18 C12        -8.0195   -4.4986    3.7858 C.3       1 <0>        -0.0247
     19 N3         -9.2130   -3.8820    4.3803 N.4       1 <0>        -0.6205
     20 H2          0.8971    1.9295   -0.3338 H         1 <0>         0.0758
     21 H3         -0.6489    1.8220   -1.2094 H         1 <0>         0.0832
     22 H4         -0.6380    1.9322    0.5672 H         1 <0>         0.0822
     23 H5         -2.1126   -0.5165   -0.1737 H         1 <0>         0.1268
     24 H6          1.1949   -4.3979   -0.9695 H         1 <0>         0.0841
     25 H7          2.0218   -3.9705    0.5476 H         1 <0>         0.0784
     26 H8          0.3717   -4.6364    0.5905 H         1 <0>         0.0817
     27 H9         -3.0439   -4.4463   -1.3740 H         1 <0>         0.0635
     28 H10        -2.5554   -2.8663   -2.0323 H         1 <0>         0.0613
     29 H11        -1.3546   -4.1691   -1.8615 H         1 <0>         0.0736
     30 H12        -3.2449   -1.6529    0.5062 H         1 <0>         0.4050
     31 H13        -4.9204   -1.9976    2.5886 H         1 <0>         0.1122
     32 H14        -5.8106   -2.2555    1.0689 H         1 <0>         0.1123
     33 H15        -5.7441   -4.6972    2.4867 H         1 <0>         0.4230
     34 H16        -8.3235   -5.2405    3.0473 H         1 <0>         0.1669
     35 H17        -7.4333   -4.9826    4.5670 H         1 <0>         0.1669
     36 H18        -8.9317   -3.1952    5.0639 H         1 <0>         0.4428
     37 H19        -9.7557   -3.4340    3.6571 H         1 <0>         0.4428
     38 H20        -9.7714   -4.5931    4.8280 H         1 <0>         0.4464
@<TRIPOS>BOND
     1    1    2 1
     2    1   20 1
     3    1   21 1
     4    1   22 1
     5    2    6 1
     6    2    3 2
     7    3    4 1
     8    3   23 1
     9    4    5 2
    10    4    8 1
    11    5    6 1
    12    5    7 1
    13    7   24 1
    14    7   25 1
    15    7   26 1
    16    8    9 1
    17    8   10 1
    18    8   11 1
    19   10   27 1
    20   10   28 1
    21   10   29 1
    22   11   12 am
    23   11   30 1
    24   12   13 2
    25   12   14 1
    26   14   15 1
    27   14   31 1
    28   14   32 1
    29   15   16 am
    30   15   33 1
    31   16   17 2
    32   16   18 1
    33   18   19 1
    34   18   34 1
    35   18   35 1
    36   19   36 1
    37   19   37 1
    38   19   38 1
@<TRIPOS>MOLECULE
ZINC40462740
   41    40     0     0     0
SMALL
USER_CHARGES

@<TRIPOS>ATOM
      1 C1         -0.0187    1.5258    0.0104 C.3       1 <0>        -0.1527
      2 C2          0.0021   -0.0041    0.0020 C.3       1 <0>        -0.1372
      3 C3         -1.4333   -0.5336    0.0129 C.3       1 <0>         0.1151
      4 N1         -1.4134   -1.9985    0.0048 N.am      1 <0>        -0.7180
      5 C4         -2.5713   -2.6882    0.0122 C.2       1 <0>         0.5088
      6 O1         -3.6297   -2.0961    0.0255 O.2       1 <0>        -0.5333
      7 C5         -2.5509   -4.1950    0.0039 C.3       1 <0>         0.1219
      8 H1         -2.0237   -4.5561    0.8869 H         1 <0>         0.1254
      9 C6         -1.8348   -4.6884   -1.2549 C.3       1 <0>        -0.1637
     10 N2         -3.9253   -4.7021    0.0143 N.am      1 <0>        -0.6829
     11 C7         -4.1867   -5.9304    0.5035 C.2       1 <0>         0.5080
     12 O2         -3.2841   -6.6160    0.9351 O.2       1 <0>        -0.5200
     13 C8         -5.6005   -6.4521    0.5142 C.3       1 <0>         0.0175
     14 H2         -6.1006   -6.1654   -0.4109 H         1 <0>         0.1699
     15 C9         -6.3540   -5.8587    1.7063 C.3       1 <0>        -0.1264
     16 C10        -7.8212   -6.2885    1.6474 C.3       1 <0>        -0.1202
     17 S1         -8.7146   -5.5850    3.0607 S.3       1 <0>        -0.2222
     18 C11       -10.4145   -6.1806    2.8459 C.3       1 <0>        -0.1261
     19 N3         -5.5813   -7.9166    0.6269 N.4       1 <0>        -0.6218
     20 H3          1.0039    1.9031    0.0027 H         1 <0>         0.0649
     21 H4         -0.5459    1.8868   -0.8726 H         1 <0>         0.0597
     22 H5         -0.5289    1.8773    0.9072 H         1 <0>         0.0597
     23 H6          0.5123   -0.3556   -0.8948 H         1 <0>         0.0712
     24 H7          0.5293   -0.3651    0.8851 H         1 <0>         0.0710
     25 H8         -1.9435   -0.1821    0.9097 H         1 <0>         0.0736
     26 H9         -1.9605   -0.1726   -0.8702 H         1 <0>         0.0740
     27 H10        -0.5669   -2.4720   -0.0058 H         1 <0>         0.4057
     28 H11        -0.8122   -4.3112   -1.2627 H         1 <0>         0.0837
     29 H12        -1.8200   -5.7783   -1.2609 H         1 <0>         0.0765
     30 H13        -2.3619   -4.3274   -2.1380 H         1 <0>         0.0712
     31 H14        -4.6472   -4.1538   -0.3309 H         1 <0>         0.4207
     32 H15        -5.9073   -6.2174    2.6335 H         1 <0>         0.1102
     33 H16        -6.2923   -4.7711    1.6702 H         1 <0>         0.1299
     34 H17        -8.2680   -5.9298    0.7201 H         1 <0>         0.1011
     35 H18        -7.8830   -7.3762    1.6834 H         1 <0>         0.0788
     36 H19       -10.8068   -5.8242    1.8934 H         1 <0>         0.0837
     37 H20       -10.4218   -7.2705    2.8567 H         1 <0>         0.0816
     38 H21       -11.0365   -5.8050    3.6584 H         1 <0>         0.1134
     39 H22        -5.1184   -8.1820    1.4832 H         1 <0>         0.4442
     40 H23        -6.5279   -8.2659    0.6340 H         1 <0>         0.4404
     41 H24        -5.0843   -8.3079   -0.1593 H         1 <0>         0.4425
@<TRIPOS>BOND
     1    1    2 1
     2    1   20 1
     3    1   21 1
     4    1   22 1
     5    2    3 1
     6    2   23 1
     7    2   24 1
     8    3    4 1
     9    3   25 1
    10    3   26 1
    11    4    5 am
    12    4   27 1
    13    5    6 2
    14    5    7 1
    15    7    8 1
    16    7    9 1
    17    7   10 1
    18    9   28 1
    19    9   29 1
    20    9   30 1
    21   10   11 am
    22   10   31 1
    23   11   12 2
    24   11   13 1
    25   13   14 1
    26   13   15 1
    27   13   19 1
    28   15   16 1
    29   15   32 1
    30   15   33 1
    31   16   17 1
    32   16   34 1
    33   16   35 1
    34   17   18 1
    35   18   36 1
    36   18   37 1
    37   18   38 1
    38   19   39 1
    39   19   40 1
    40   19   41 1
@<TRIPOS>MOLECULE
ZINC44253819
   39    41     0     0     0
SMALL
USER_CHARGES

@<TRIPOS>ATOM
      1 C1         -0.0387    1.5025    0.0105 C.3       1 <0>        -0.1290
      2 C2         -0.0132   -0.0043    0.0022 C.ar      1 <0>        -0.0319
      3 C3          1.1971   -0.6737   -0.0065 C.ar      1 <0>        -0.1289
      4 C4          1.2243   -2.0542   -0.0142 C.ar      1 <0>        -0.0484
      5 C5          0.0336   -2.7711   -0.0126 C.ar      1 <0>        -0.1406
      6 C6         -1.1807   -2.0949   -0.0034 C.ar      1 <0>        -0.0430
      7 C7         -1.2001   -0.7144    0.0090 C.ar      1 <0>        -0.1284
      8 S1          0.0634   -4.5328   -0.0229 S.3       1 <0>         0.0221
      9 C8          0.2270   -4.9663    1.6771 C.2       1 <0>         0.0560
     10 C9          0.3904   -6.2148    2.1624 C.2       1 <0>        -0.0818
     11 N1          0.4781   -6.1185    3.5534 N.pl3     1 <0>        -0.4062
     12 C10         0.6405   -6.9588    4.6330 C.2       1 <0>        -0.0002
     13 C11         0.6768   -6.4756    5.8742 C.2       1 <0>        -0.1457
     14 S2          0.4760   -4.7232    5.5933 S.3       1 <0>         0.1886
     15 C12         0.3583   -4.7810    3.8205 C.2       1 <0>         0.2115
     16 N2          0.2165   -4.1094    2.7130 N.2       1 <0>        -0.4205
     17 C13         0.4640   -7.4828    1.3513 C.3       1 <0>         0.1477
     18 H1          0.8587   -8.2880    1.9709 H         1 <0>         0.1578
     19 C14        -0.9362   -7.8563    0.8606 C.3       1 <0>        -0.1723
     20 C15        -0.8828   -9.1867    0.1547 C.2       1 <0>         0.5169
     21 O1          0.1714   -9.7779    0.0540 O.2       1 <0>        -0.5573
     22 N3         -2.0065   -9.7195   -0.3647 N.am      1 <0>        -0.8297
     23 N4          1.3482   -7.2749    0.1968 N.4       1 <0>        -0.6299
     24 H2         -0.0356    1.8602    1.0401 H         1 <0>         0.0820
     25 H3          0.8404    1.8836   -0.5092 H         1 <0>         0.0753
     26 H4         -0.9393    1.8534   -0.4934 H         1 <0>         0.0756
     27 H5          2.1219   -0.1160   -0.0077 H         1 <0>         0.1347
     28 H6          2.1697   -2.5763   -0.0217 H         1 <0>         0.1294
     29 H7         -2.1079   -2.6487   -0.0025 H         1 <0>         0.1336
     30 H8         -2.1432   -0.1883    0.0203 H         1 <0>         0.1357
     31 H9          0.7392   -8.0220    4.4714 H         1 <0>         0.1829
     32 H10         0.7962   -7.0058    6.8075 H         1 <0>         0.2289
     33 H11        -1.6136   -7.9236    1.7119 H         1 <0>         0.1457
     34 H12        -1.2950   -7.0928    0.1703 H         1 <0>         0.1301
     35 H13        -2.8497   -9.2467   -0.2842 H         1 <0>         0.4135
     36 H14        -1.9722  -10.5758   -0.8191 H         1 <0>         0.4181
     37 H15         0.9829   -6.5295   -0.3768 H         1 <0>         0.4218
     38 H16         2.2716   -7.0286    0.5204 H         1 <0>         0.4398
     39 H17         1.3975   -8.1239   -0.3463 H         1 <0>         0.4459
@<TRIPOS>BOND
     1    1    2 1
     2    1   24 1
     3    1   25 1
     4    1   26 1
     5    2    7 ar
     6    2    3 ar
     7    3    4 ar
     8    3   27 1
     9    4    5 ar
    10    4   28 1
    11    5    6 ar
    12    5    8 1
    13    6    7 ar
    14    6   29 1
    15    7   30 1
    16    8    9 1
    17    9   16 1
    18    9   10 2
    19   10   11 1
    20   10   17 1
    21   11   15 1
    22   11   12 1
    23   12   13 2
    24   12   31 1
    25   13   14 1
    26   13   32 1
    27   14   15 1
    28   15   16 2
    29   17   18 1
    30   17   19 1
    31   17   23 1
    32   19   20 1
    33   19   33 1
    34   19   34 1
    35   20   21 2
    36   20   22 am
    37   22   35 1
    38   22   36 1
    39   23   37 1
    40   23   38 1
    41   23   39 1
@<TRIPOS>MOLECULE
ZINC55129084
   44    44     0     0     0
SMALL
USER_CHARGES

@<TRIPOS>ATOM
      1 C1         -0.0472    1.4788   -0.1265 C.3       1 <0>        -0.1668
      2 C2          0.0469   -0.0389    0.0425 C.3       1 <0>        -0.1301
      3 H1         -0.9399   -0.4815   -0.0935 H         1 <0>         0.1330
      4 C3          1.0100   -0.6095   -1.0005 C.3       1 <0>        -0.1105
      5 C4          1.1040   -2.1273   -0.8314 C.3       1 <0>        -0.1318
      6 C5          1.6201   -2.4531    0.5716 C.3       1 <0>        -0.1113
      7 C6          0.6571   -1.8825    1.6146 C.3       1 <0>        -0.1305
      8 H2          1.0248   -2.1146    2.6141 H         1 <0>         0.1196
      9 C7          0.5630   -0.3648    1.4455 C.3       1 <0>         0.0536
     10 H3          1.5498    0.0778    1.5815 H         1 <0>         0.1496
     11 N1         -0.3616    0.1831    2.4469 N.4       1 <0>        -0.6389
     12 C8         -0.7072   -2.4944    1.4265 C.2       1 <0>         0.5199
     13 O1         -1.6205   -1.8203    0.9994 O.2       1 <0>        -0.5473
     14 N2         -0.9124   -3.7907    1.7330 N.am      1 <0>        -0.5689
     15 C9         -2.2058   -4.4156    1.4452 C.3       1 <0>         0.0851
     16 C10        -2.1801   -5.0083    0.0599 C.2       1 <0>         0.5007
     17 O2         -1.1799   -4.9177   -0.6200 O.2       1 <0>        -0.5285
     18 N3         -3.2687   -5.6391   -0.4234 N.am      1 <0>        -0.8504
     19 C11         0.1580   -4.5749    2.3540 C.3       1 <0>         0.1191
     20 C12        -0.2658   -4.9889    3.7647 C.3       1 <0>        -0.1693
     21 C13         0.4268   -5.8255    1.5146 C.3       1 <0>        -0.1678
     22 H4          0.9396    1.9214    0.0095 H         1 <0>         0.0689
     23 H5         -0.4149    1.7109   -1.1260 H         1 <0>         0.0835
     24 H6         -0.7333    1.8853    0.6165 H         1 <0>         0.0504
     25 H7          0.6423   -0.3774   -2.0000 H         1 <0>         0.0837
     26 H8          1.9967   -0.1670   -0.8644 H         1 <0>         0.0724
     27 H9          0.1173   -2.5698   -0.9674 H         1 <0>         0.0781
     28 H10         1.7901   -2.5338   -1.5744 H         1 <0>         0.0819
     29 H11         1.6872   -3.5344    0.6920 H         1 <0>         0.0934
     30 H12         2.6069   -2.0105    0.7076 H         1 <0>         0.0900
     31 H13        -1.2751   -0.2266    2.3210 H         1 <0>         0.4364
     32 H14        -0.0213   -0.0318    3.3721 H         1 <0>         0.4297
     33 H15        -2.3991   -5.2029    2.1738 H         1 <0>         0.1167
     34 H16        -2.9934   -3.6644    1.5045 H         1 <0>         0.1204
     35 H17        -4.0687   -5.7116    0.1204 H         1 <0>         0.4043
     36 H18        -3.2522   -6.0207   -1.3151 H         1 <0>         0.4088
     37 H19         1.0647   -3.9724    2.4091 H         1 <0>         0.1000
     38 H20        -1.1725   -5.5913    3.7096 H         1 <0>         0.0656
     39 H21         0.5306   -5.5723    4.2267 H         1 <0>         0.0813
     40 H22        -0.4573   -4.0979    4.3627 H         1 <0>         0.0595
     41 H23         0.7286   -5.5305    0.5096 H         1 <0>         0.0795
     42 H24         1.2231   -6.4089    1.9766 H         1 <0>         0.0740
     43 H25        -0.4800   -6.4279    1.4595 H         1 <0>         0.0583
     44 H26        -0.4237    1.1840    2.3354 H         1 <0>         0.4350
@<TRIPOS>BOND
     1    1    2 1
     2    1   22 1
     3    1   23 1
     4    1   24 1
     5    2    3 1
     6    2    9 1
     7    2    4 1
     8    4    5 1
     9    4   25 1
    10    4   26 1
    11    5    6 1
    12    5   27 1
    13    5   28 1
    14    6    7 1
    15    6   29 1
    16    6   30 1
    17    7    8 1
    18    7    9 1
    19    7   12 1
    20    9   10 1
    21    9   11 1
    22   11   31 1
    23   11   32 1
    24   11   44 1
    25   12   13 2
    26   12   14 am
    27   14   15 1
    28   14   19 1
    29   15   16 1
    30   15   33 1
    31   15   34 1
    32   16   17 2
    33   16   18 am
    34   18   35 1
    35   18   36 1
    36   19   20 1
    37   19   21 1
    38   19   37 1
    39   20   38 1
    40   20   39 1
    41   20   40 1
    42   21   41 1
    43   21   42 1
    44   21   43 1
@<TRIPOS>MOLECULE
ZINC62858954
   44    44     0     0     0
SMALL
USER_CHARGES

@<TRIPOS>ATOM
      1 C1          0.1427    1.1946   -3.2364 C.3       1 <0>        -0.1570
      2 C2          0.1342   -0.3046   -2.9308 C.3       1 <0>        -0.1341
      3 C3          0.7508   -0.5474   -1.5517 C.3       1 <0>        -0.1097
      4 C4          0.6333   -2.0304   -1.1945 C.3       1 <0>        -0.0999
      5 C5          1.1799   -2.2612    0.2173 C.3       1 <0>        -0.1294
      6 C6          1.1301   -3.7585    0.5348 C.3       1 <0>        -0.1527
      7 C7          1.9218   -4.5260   -0.5262 C.3       1 <0>        -0.0101
      8 N1          1.3343   -4.2852   -1.8496 N.4       1 <0>        -0.5066
      9 C8          1.4433   -2.8619   -2.1915 C.3       1 <0>         0.0131
     10 C9         -0.8137   -2.4482   -1.2494 C.2       1 <0>         0.5284
     11 O1         -1.1885   -3.2256   -2.1015 O.2       1 <0>        -0.5389
     12 N2         -1.6912   -1.9578   -0.3516 N.am      1 <0>        -0.7068
     13 C10        -3.1150   -2.2833   -0.4659 C.3       1 <0>         0.1592
     14 C11        -3.6457   -1.7850   -1.8116 C.3       1 <0>        -0.1551
     15 C12        -3.3005   -3.7992   -0.3742 C.3       1 <0>        -0.1638
     16 C13        -3.8741   -1.6158    0.6518 C.2       1 <0>         0.5160
     17 O2         -4.9965   -1.1990    0.4582 O.2       1 <0>        -0.5083
     18 N3         -3.3058   -1.4819    1.8665 N.am      1 <0>        -0.8528
     19 H1         -0.4384    1.7228   -2.4805 H         1 <0>         0.0586
     20 H2          1.1691    1.5614   -3.2277 H         1 <0>         0.0604
     21 H3         -0.2966    1.3676   -4.2189 H         1 <0>         0.0635
     22 H4         -0.8922   -0.6713   -2.9395 H         1 <0>         0.0673
     23 H5          0.7152   -0.8328   -3.6867 H         1 <0>         0.0673
     24 H6          1.8020   -0.2598   -1.5680 H         1 <0>         0.0934
     25 H7          0.2225    0.0486   -0.8075 H         1 <0>         0.0878
     26 H8          2.2108   -1.9114    0.2707 H         1 <0>         0.1028
     27 H9          0.5707   -1.7154    0.9377 H         1 <0>         0.0954
     28 H10         1.5690   -3.9372    1.5164 H         1 <0>         0.1212
     29 H11         0.0941   -4.0971    0.5316 H         1 <0>         0.0858
     30 H12         2.9577   -4.1869   -0.5219 H         1 <0>         0.1340
     31 H13         1.8886   -5.5924   -0.3030 H         1 <0>         0.1355
     32 H14         1.8250   -4.8343   -2.5393 H         1 <0>         0.4334
     33 H15         1.0569   -2.6998   -3.1977 H         1 <0>         0.1427
     34 H16         2.4894   -2.5583   -2.1517 H         1 <0>         0.1420
     35 H17        -1.3800   -1.3894    0.3701 H         1 <0>         0.4050
     36 H18        -3.0966   -2.2679   -2.6200 H         1 <0>         0.0845
     37 H19        -4.7050   -2.0272   -1.8966 H         1 <0>         0.0861
     38 H20        -3.5135   -0.7050   -1.8769 H         1 <0>         0.0639
     39 H21        -2.9225   -4.1542    0.5846 H         1 <0>         0.0619
     40 H22        -4.3599   -4.0414   -0.4592 H         1 <0>         0.0823
     41 H23        -2.7515   -4.2821   -1.1826 H         1 <0>         0.0928
     42 H24        -2.4081   -1.8153    2.0214 H         1 <0>         0.3962
     43 H25        -3.7944   -1.0523    2.5859 H         1 <0>         0.4125
     44 H26         0.3618   -4.5539   -1.8386 H         1 <0>         0.4323
@<TRIPOS>BOND
     1    1    2 1
     2    1   19 1
     3    1   20 1
     4    1   21 1
     5    2    3 1
     6    2   22 1
     7    2   23 1
     8    3    4 1
     9    3   24 1
    10    3   25 1
    11    4    9 1
    12    4    5 1
    13    4   10 1
    14    5    6 1
    15    5   26 1
    16    5   27 1
    17    6    7 1
    18    6   28 1
    19    6   29 1
    20    7    8 1
    21    7   30 1
    22    7   31 1
    23    8    9 1
    24    8   32 1
    25    8   44 1
    26    9   33 1
    27    9   34 1
    28   10   11 2
    29   10   12 am
    30   12   13 1
    31   12   35 1
    32   13   14 1
    33   13   15 1
    34   13   16 1
    35   14   36 1
    36   14   37 1
    37   14   38 1
    38   15   39 1
    39   15   40 1
    40   15   41 1
    41   16   17 2
    42   16   18 am
    43   18   42 1
    44   18   43 1
@<TRIPOS>MOLECULE
ZINC28369841
   46    48     0     0     0
SMALL
USER_CHARGES
N6-[(1R)-1-(4-fluorophenyl)ethyl]-N4-[2-(4-pyridyl)ethyl]-1,3,5-triazine-2,4,6-triamine
@<TRIPOS>ATOM
      1 C1          1.5811   -6.9331    5.5130 C.3       1 <0>        -0.1568
      2 C2          0.1379   -6.8023    5.0221 C.3       1 <0>         0.2062
      3 H1         -0.4756   -6.2425    5.7434 H         1 <0>         0.1021
      4 C3         -0.4472   -8.1750    4.8111 C.ar      1 <0>        -0.1022
      5 C4         -0.1599   -8.8782    3.6561 C.ar      1 <0>        -0.0845
      6 C5         -0.6921  -10.1390    3.4637 C.ar      1 <0>        -0.1483
      7 C6         -1.5217  -10.6935    4.4236 C.ar      1 <0>         0.0996
      8 C7         -1.8130   -9.9861    5.5776 C.ar      1 <0>        -0.1489
      9 C8         -1.2755   -8.7276    5.7702 C.ar      1 <0>        -0.0769
     10 F1         -2.0463  -11.9241    4.2344 F         1 <0>        -0.1382
     11 N1          0.1174   -6.0631    3.7575 N.pl3     1 <0>        -0.6982
     12 C9          0.1001   -4.6831    3.7650 C.ar      1 <0>         0.6580
     13 N2          0.1020   -4.0246    4.9200 N.ar      1 <0>        -0.6844
     14 C10         0.0849   -2.6955    4.9273 C.ar      1 <0>         0.6557
     15 N3          0.0654   -2.0246    3.7796 N.ar      1 <0>        -0.6857
     16 C11         0.0634   -2.6830    2.6249 C.ar      1 <0>         0.6554
     17 N4          0.0759   -4.0124    2.6177 N.ar      1 <0>        -0.6865
     18 N5          0.0426   -1.9866    1.4336 N.pl3     1 <0>        -0.7028
     19 C12         0.0228   -0.5218    1.4416 C.3       1 <0>         0.1501
     20 C13         0.0021   -0.0041    0.0020 C.3       1 <0>        -0.0968
     21 C14        -0.0184    1.5028    0.0103 C.ar      1 <0>        -0.0360
     22 C15        -1.2189    2.1962    0.0197 C.ar      1 <0>        -0.1678
     23 C16        -1.1984    3.5781    0.0313 C.ar      1 <0>         0.1012
     24 N6         -0.0554    4.2358    0.0240 N.ar      1 <0>        -0.4871
     25 C17         1.1049    3.6094    0.0104 C.ar      1 <0>         0.1011
     26 C18         1.1629    2.2286    0.0029 C.ar      1 <0>        -0.1678
     27 N7          0.0870   -2.0119    6.1262 N.pl3     1 <0>        -0.8349
     28 H2          2.0082   -5.9312    5.6670 H         1 <0>         0.0666
     29 H3          2.1761   -7.4739    4.7624 H         1 <0>         0.0579
     30 H4          1.5965   -7.4882    6.4625 H         1 <0>         0.0680
     31 H5          0.4839   -8.4438    2.9057 H         1 <0>         0.1322
     32 H6         -0.4642  -10.6899    2.5632 H         1 <0>         0.1379
     33 H7         -2.4603  -10.4175    6.3268 H         1 <0>         0.1383
     34 H8         -1.5028   -8.1755    6.6701 H         1 <0>         0.1360
     35 H9          0.1158   -6.6079    2.8019 H         1 <0>         0.4326
     36 H10         0.0409   -2.5315    0.4780 H         1 <0>         0.4377
     37 H11        -0.8752   -0.1701    1.9707 H         1 <0>         0.0682
     38 H12         0.9208   -0.1457    1.9536 H         1 <0>         0.0683
     39 H13         0.9002   -0.3557   -0.5270 H         1 <0>         0.0864
     40 H14        -0.8959   -0.3802   -0.5101 H         1 <0>         0.0864
     41 H15        -2.1583    1.6633    0.0212 H         1 <0>         0.1353
     42 H16        -2.1292    4.1257    0.0420 H         1 <0>         0.1566
     43 H17         2.0206    4.1822    0.0047 H         1 <0>         0.1566
     44 H18         2.1163    1.7214   -0.0089 H         1 <0>         0.1353
     45 H19         0.0728   -0.9120    6.1322 H         1 <0>         0.4370
     46 H20         0.1028   -2.5669    7.0758 H         1 <0>         0.4370
@<TRIPOS>BOND
     1    1    2 1
     2    1   28 1
     3    1   29 1
     4    1   30 1
     5    2    3 1
     6    2    4 1
     7    2   11 1
     8    4    9 ar
     9    4    5 ar
    10    5    6 ar
    11    5   31 1
    12    6    7 ar
    13    6   32 1
    14    7    8 ar
    15    7   10 1
    16    8    9 ar
    17    8   33 1
    18    9   34 1
    19   11   12 1
    20   11   35 1
    21   12   17 ar
    22   12   13 ar
    23   13   14 ar
    24   14   15 ar
    25   14   27 1
    26   15   16 ar
    27   16   17 ar
    28   16   18 1
    29   18   19 1
    30   18   36 1
    31   19   20 1
    32   19   37 1
    33   19   38 1
    34   20   21 1
    35   20   39 1
    36   20   40 1
    37   21   26 ar
    38   21   22 ar
    39   22   23 ar
    40   22   41 1
    41   23   24 ar
    42   23   42 1
    43   24   25 ar
    44   25   26 ar
    45   25   43 1
    46   26   44 1
    47   27   45 1
    48   27   46 1
@<TRIPOS>MOLECULE
ZINC40783393
   46    48     0     0     0
SMALL
USER_CHARGES

@<TRIPOS>ATOM
      1 C1         -0.0348    1.5025    0.0097 C.3       1 <0>        -0.1216
      2 C2         -0.0107   -0.0043    0.0019 C.ar      1 <0>        -0.0505
      3 C3          1.1989   -0.6748   -0.0068 C.ar      1 <0>        -0.1311
      4 C4          1.2248   -2.0554   -0.0143 C.ar      1 <0>        -0.0503
      5 C5          0.0337   -2.7710   -0.0127 C.ar      1 <0>        -0.1313
      6 C6         -1.1798   -2.0940   -0.0035 C.ar      1 <0>        -0.0500
      7 C7         -1.1981   -0.7133    0.0093 C.ar      1 <0>        -0.1311
      8 S1          0.0619   -4.5327   -0.0229 S.3       1 <0>         0.0406
      9 C8          0.2252   -4.9663    1.6771 C.ar      1 <0>         0.1001
     10 C9          0.3893   -6.3003    2.0562 C.ar      1 <0>         0.0948
     11 C10         0.5138   -6.5884    3.4163 C.ar      1 <0>         0.3939
     12 N1          0.4717   -5.5882    4.2937 N.ar      1 <0>        -0.5528
     13 C11         0.3153   -4.3424    3.8939 C.ar      1 <0>         0.3018
     14 N2          0.1995   -4.0266    2.6200 N.ar      1 <0>        -0.5100
     15 N3          0.6787   -7.8992    3.8477 N.pl3     1 <0>        -0.5094
     16 N4          0.8026   -8.1761    5.2155 N.am      1 <0>        -0.5068
     17 C12         0.9626   -9.4473    5.6339 C.2       1 <0>         0.5142
     18 O1          0.9992  -10.3514    4.8264 O.2       1 <0>        -0.5167
     19 C13         1.0959   -9.7452    7.1052 C.3       1 <0>         0.0550
     20 O2          1.2538  -11.1528    7.2938 O.3       1 <0>        -0.2893
     21 C14         1.3883  -11.5927    8.5726 C.ar      1 <0>         0.1256
     22 C15         1.3629  -10.6887    9.6246 C.ar      1 <0>        -0.2108
     23 C16         1.4993  -11.1385   10.9237 C.ar      1 <0>        -0.0795
     24 C17         1.6615  -12.4882   11.1757 C.ar      1 <0>        -0.1553
     25 C18         1.6876  -13.3912   10.1289 C.ar      1 <0>        -0.0789
     26 C19         1.5454  -12.9471    8.8285 C.ar      1 <0>        -0.1460
     27 N5          0.4275   -7.3237    1.0956 N.pl3     1 <0>        -0.8615
     28 H1         -0.0312    1.8607    1.0391 H         1 <0>         0.0760
     29 H2          0.8445    1.8827   -0.5104 H         1 <0>         0.0700
     30 H3         -0.9352    1.8541   -0.4942 H         1 <0>         0.0701
     31 H4          2.1243   -0.1180   -0.0081 H         1 <0>         0.1279
     32 H5          2.1697   -2.5784   -0.0219 H         1 <0>         0.1274
     33 H6         -2.1075   -2.6470   -0.0025 H         1 <0>         0.1293
     34 H7         -2.1408   -0.1864    0.0209 H         1 <0>         0.1283
     35 H8          0.2856   -3.5555    4.6330 H         1 <0>         0.1982
     36 H9          0.7080   -8.6224    3.2019 H         1 <0>         0.4397
     37 H10         0.7734   -7.4530    5.8614 H         1 <0>         0.4354
     38 H11         1.9670   -9.2252    7.5037 H         1 <0>         0.1011
     39 H12         0.2007   -9.4068    7.6269 H         1 <0>         0.1011
     40 H13         1.2369   -9.6342    9.4282 H         1 <0>         0.1285
     41 H14         1.4796  -10.4351   11.7430 H         1 <0>         0.1270
     42 H15         1.7683  -12.8378   12.1920 H         1 <0>         0.1256
     43 H16         1.8148  -14.4449   10.3284 H         1 <0>         0.1317
     44 H17         1.5614  -13.6533    8.0115 H         1 <0>         0.1332
     45 H18         0.3393   -7.1085    0.1539 H         1 <0>         0.4075
     46 H19         0.5421   -8.2458    1.3738 H         1 <0>         0.3989
@<TRIPOS>BOND
     1    1    2 1
     2    1   28 1
     3    1   29 1
     4    1   30 1
     5    2    7 ar
     6    2    3 ar
     7    3    4 ar
     8    3   31 1
     9    4    5 ar
    10    4   32 1
    11    5    6 ar
    12    5    8 1
    13    6    7 ar
    14    6   33 1
    15    7   34 1
    16    8    9 1
    17    9   14 ar
    18    9   10 ar
    19   10   11 ar
    20   10   27 1
    21   11   12 ar
    22   11   15 1
    23   12   13 ar
    24   13   14 ar
    25   13   35 1
    26   15   16 1
    27   15   36 1
    28   16   17 am
    29   16   37 1
    30   17   18 2
    31   17   19 1
    32   19   20 1
    33   19   38 1
    34   19   39 1
    35   20   21 1
    36   21   26 ar
    37   21   22 ar
    38   22   23 ar
    39   22   40 1
    40   23   24 ar
    41   23   41 1
    42   24   25 ar
    43   24   42 1
    44   25   26 ar
    45   25   43 1
    46   26   44 1
    47   27   45 1
    48   27   46 1
@<TRIPOS>MOLECULE
ZINC53733674
   42    44     0     0     0
SMALL
USER_CHARGES

@<TRIPOS>ATOM
      1 C1          0.2347    1.8384   -0.2025 C.3       1 <0>        -0.1612
      2 C2          0.0623    0.3215   -0.1018 C.3       1 <0>         0.2062
      3 H1         -0.9996    0.0759   -0.0991 H         1 <0>         0.1019
      4 C3          0.6954   -0.1725    1.1735 C.ar      1 <0>        -0.0828
      5 C4          2.0666   -0.3522    1.2378 C.ar      1 <0>        -0.1025
      6 C5          2.6559   -0.8045    2.4020 C.ar      1 <0>        -0.0980
      7 C6          1.8707   -1.0797    3.5112 C.ar      1 <0>         0.0919
      8 C7          0.4878   -0.8984    3.4464 C.ar      1 <0>         0.0951
      9 C8         -0.0942   -0.4386    2.2749 C.ar      1 <0>        -0.0893
     10 N1         -0.0232   -1.2501    4.6936 N.am      1 <0>        -0.6413
     11 H2         -0.9581   -1.2270    4.9510 H         1 <0>         0.4376
     12 C9          1.0017   -1.6278    5.4807 C.2       1 <0>         0.6845
     13 O1          0.8993   -1.9967    6.6358 O.2       1 <0>        -0.5513
     14 N2          2.1572   -1.5358    4.7957 N.am      1 <0>        -0.6419
     15 H3          3.0389   -1.7506    5.1384 H         1 <0>         0.4370
     16 N3          0.7092   -0.3207   -1.2487 N.am      1 <0>        -0.7354
     17 C10         0.0419   -0.4520   -2.4123 C.2       1 <0>         0.7052
     18 O2         -1.0969   -0.0374   -2.5102 O.2       1 <0>        -0.5638
     19 N4          0.6370   -1.0428   -3.4674 N.am      1 <0>        -0.6847
     20 C11        -0.0907   -1.2795   -4.6391 C.ar      1 <0>         0.2047
     21 C12         0.5420   -1.2211   -5.8745 C.ar      1 <0>        -0.1854
     22 C13        -0.1762   -1.4546   -7.0309 C.ar      1 <0>        -0.0588
     23 C14        -1.5255   -1.7465   -6.9625 C.ar      1 <0>        -0.2263
     24 C15        -2.1627   -1.8057   -5.7312 C.ar      1 <0>         0.1476
     25 C16        -1.4437   -1.5784   -4.5680 C.ar      1 <0>        -0.1555
     26 O3         -3.4895   -2.0923   -5.6654 O.3       1 <0>        -0.3149
     27 C17        -4.1659   -2.3215   -6.9032 C.3       1 <0>         0.0270
     28 H4          1.2967    2.0840   -0.2051 H         1 <0>         0.0606
     29 H5         -0.2231    2.1956   -1.1249 H         1 <0>         0.0682
     30 H6         -0.2465    2.3162    0.6509 H         1 <0>         0.0707
     31 H7          2.6780   -0.1381    0.3736 H         1 <0>         0.1326
     32 H8          3.7259   -0.9438    2.4482 H         1 <0>         0.1357
     33 H9         -1.1631   -0.2930    2.2225 H         1 <0>         0.1370
     34 H10         1.6177   -0.6515   -1.1706 H         1 <0>         0.3976
     35 H11         1.5697   -1.3039   -3.4147 H         1 <0>         0.4090
     36 H12         1.5961   -0.9926   -5.9307 H         1 <0>         0.1269
     37 H13         0.3173   -1.4088   -7.9905 H         1 <0>         0.1297
     38 H14        -2.0846   -1.9283   -7.8684 H         1 <0>         0.1289
     39 H15        -1.9369   -1.6288   -3.6085 H         1 <0>         0.1441
     40 H16        -3.7085   -3.1677   -7.4159 H         1 <0>         0.0562
     41 H17        -5.2160   -2.5390   -6.7085 H         1 <0>         0.1008
     42 H18        -4.0889   -1.4326   -7.5293 H         1 <0>         0.0565
@<TRIPOS>BOND
     1    1    2 1
     2    1   28 1
     3    1   29 1
     4    1   30 1
     5    2    3 1
     6    2    4 1
     7    2   16 1
     8    4    9 ar
     9    4    5 ar
    10    5    6 ar
    11    5   31 1
    12    6    7 ar
    13    6   32 1
    14    7   14 1
    15    7    8 ar
    16    8    9 ar
    17    8   10 1
    18    9   33 1
    19   10   11 1
    20   10   12 am
    21   12   13 2
    22   12   14 am
    23   14   15 1
    24   16   17 am
    25   16   34 1
    26   17   18 2
    27   17   19 am
    28   19   20 1
    29   19   35 1
    30   20   25 ar
    31   20   21 ar
    32   21   22 ar
    33   21   36 1
    34   22   23 ar
    35   22   37 1
    36   23   24 ar
    37   23   38 1
    38   24   25 ar
    39   24   26 1
    40   25   39 1
    41   26   27 1
    42   27   40 1
    43   27   41 1
    44   27   42 1
@<TRIPOS>MOLECULE
ZINC59147883
   40    41     0     0     0
SMALL
USER_CHARGES

@<TRIPOS>ATOM
      1 C1         -0.0173    1.4248    0.0099 C.3       1 <0>         0.0255
      2 O1          0.0021   -0.0041    0.0020 O.3       1 <0>        -0.3163
      3 C2         -1.2003   -0.6375    0.0101 C.ar      1 <0>         0.1404
      4 C3         -2.3746    0.1011    0.0195 C.ar      1 <0>        -0.2110
      5 C4         -3.5956   -0.5451    0.0272 C.ar      1 <0>        -0.0483
      6 C5         -3.6478   -1.9268    0.0260 C.ar      1 <0>        -0.1351
      7 C6         -2.4788   -2.6651    0.0172 C.ar      1 <0>        -0.0518
      8 C7         -1.2554   -2.0237    0.0032 C.ar      1 <0>        -0.1554
      9 C8         -4.9811   -2.6292    0.0350 C.3       1 <0>         0.1267
     10 O2         -5.4124   -2.8497   -1.3094 O.3       1 <0>        -0.3300
     11 C9         -6.5951   -3.4718   -1.4780 C.2       1 <0>         0.6805
     12 O3         -7.2431   -3.8180   -0.5098 O.2       1 <0>        -0.5594
     13 N1         -7.0599   -3.7105   -2.7203 N.am      1 <0>        -0.5577
     14 N2         -6.3129   -3.3115   -3.8364 N.2       1 <0>        -0.2093
     15 C10        -6.7607   -3.5415   -5.0332 C.2       1 <0>         0.1181
     16 C11        -5.9758   -3.1222   -6.2061 C.ar      1 <0>        -0.1243
     17 C12        -4.7417   -2.4795   -6.0346 C.ar      1 <0>         0.1836
     18 C13        -4.0096   -2.0883   -7.1416 C.ar      1 <0>        -0.1881
     19 C14        -4.4944   -2.3308   -8.4196 C.ar      1 <0>         0.1607
     20 C15        -5.7155   -2.9666   -8.5973 C.ar      1 <0>        -0.1879
     21 C16        -6.4561   -3.3688   -7.4999 C.ar      1 <0>         0.1720
     22 O4         -7.6476   -3.9961   -7.6757 O.3       1 <0>        -0.4907
     23 O5         -3.7703   -1.9435   -9.5018 O.3       1 <0>        -0.4939
     24 O6         -4.2661   -2.2411   -4.7851 O.3       1 <0>        -0.4667
     25 H1          1.0053    1.8021    0.0021 H         1 <0>         0.1021
     26 H2         -0.5445    1.7859   -0.8732 H         1 <0>         0.0575
     27 H3         -0.5275    1.7763    0.9067 H         1 <0>         0.0571
     28 H4         -2.3343    1.1803    0.0211 H         1 <0>         0.1313
     29 H5         -4.5101    0.0294    0.0345 H         1 <0>         0.1272
     30 H6         -2.5223   -3.7443    0.0166 H         1 <0>         0.1318
     31 H7         -0.3427   -2.6008   -0.0082 H         1 <0>         0.1342
     32 H8         -4.8840   -3.5865    0.5470 H         1 <0>         0.0781
     33 H9         -5.7136   -2.0117    0.5548 H         1 <0>         0.0771
     34 H10        -7.9116   -4.1586   -2.8417 H         1 <0>         0.4099
     35 H11        -7.7090   -4.0404   -5.1684 H         1 <0>         0.1283
     36 H12        -3.0589   -1.5928   -7.0111 H         1 <0>         0.1435
     37 H13        -6.0863   -3.1519   -9.5946 H         1 <0>         0.1442
     38 H14        -8.4047   -3.3964   -7.7225 H         1 <0>         0.3995
     39 H15        -3.1517   -2.6143   -9.8217 H         1 <0>         0.3994
     40 H16        -3.7197   -2.9552   -4.4293 H         1 <0>         0.3972
@<TRIPOS>BOND
     1    1    2 1
     2    1   25 1
     3    1   26 1
     4    1   27 1
     5    2    3 1
     6    3    8 ar
     7    3    4 ar
     8    4    5 ar
     9    4   28 1
    10    5    6 ar
    11    5   29 1
    12    6    7 ar
    13    6    9 1
    14    7    8 ar
    15    7   30 1
    16    8   31 1
    17    9   10 1
    18    9   32 1
    19    9   33 1
    20   10   11 1
    21   11   12 2
    22   11   13 am
    23   13   14 1
    24   13   34 1
    25   14   15 2
    26   15   16 1
    27   15   35 1
    28   16   21 ar
    29   16   17 ar
    30   17   18 ar
    31   17   24 1
    32   18   19 ar
    33   18   36 1
    34   19   20 ar
    35   19   23 1
    36   20   21 ar
    37   20   37 1
    38   21   22 1
    39   22   38 1
    40   23   39 1
    41   24   40 1
@<TRIPOS>MOLECULE
ZINC67581741
   51    53     0     0     0
SMALL
USER_CHARGES

@<TRIPOS>ATOM
      1 C1         -0.0187    1.5258    0.0104 C.3       1 <0>        -0.1468
      2 C2          0.0021   -0.0041    0.0020 C.3       1 <0>        -0.0990
      3 C3          0.7421   -0.5109    1.2415 C.3       1 <0>        -0.1591
      4 C4         -1.4333   -0.5336    0.0129 C.3       1 <0>         0.2504
      5 H1         -1.9605   -0.1726   -0.8702 H         1 <0>         0.1087
      6 C5         -2.1387   -0.0476    1.2528 C.2       1 <0>         0.2727
      7 N1         -3.3148    0.6358    1.2629 N.pl3     1 <0>        -0.5893
      8 H2         -3.8380    0.8914    0.4871 H         1 <0>         0.4248
      9 C6         -3.6260    0.8979    2.5821 C.ar      1 <0>         0.0529
     10 C7         -4.6763    1.5468    3.2173 C.ar      1 <0>        -0.1126
     11 C8         -4.6898    1.6395    4.5926 C.ar      1 <0>        -0.0957
     12 C9         -3.6615    1.0894    5.3448 C.ar      1 <0>        -0.1263
     13 C10        -2.6201    0.4473    4.7371 C.ar      1 <0>        -0.0612
     14 C11        -2.5854    0.3407    3.3442 C.ar      1 <0>         0.0424
     15 N2         -1.7144   -0.2255    2.4698 N.2       1 <0>        -0.4665
     16 N3         -1.4134   -1.9985    0.0048 N.am      1 <0>        -0.7327
     17 C12        -1.3137   -2.6647   -1.1625 C.2       1 <0>         0.7183
     18 O1         -1.2402   -2.0499   -2.2090 O.2       1 <0>        -0.5660
     19 N4         -1.2954   -4.0123   -1.1699 N.am      1 <0>        -0.5243
     20 N5         -1.3801   -4.7206    0.0358 N.am      1 <0>        -0.5331
     21 C13        -1.3618   -6.0683    0.0284 C.2       1 <0>         0.5670
     22 O2         -1.2718   -6.6693   -1.0247 O.2       1 <0>        -0.5068
     23 C14        -1.4510   -6.8142    1.2982 C.ar      1 <0>        -0.1718
     24 C15        -1.5604   -6.1278    2.5101 C.ar      1 <0>        -0.0474
     25 C16        -1.6438   -6.8303    3.6924 C.ar      1 <0>        -0.1629
     26 C17        -1.6197   -8.2156    3.6857 C.ar      1 <0>        -0.0444
     27 C18        -1.5115   -8.9064    2.4953 C.ar      1 <0>        -0.2180
     28 C19        -1.4324   -8.2155    1.2951 C.ar      1 <0>         0.1927
     29 O3         -1.3322   -8.8930    0.1242 O.3       1 <0>        -0.2816
     30 C20        -1.3193  -10.3200    0.1994 C.3       1 <0>         0.0195
     31 H3          1.0039    1.9031    0.0027 H         1 <0>         0.0652
     32 H4         -0.5459    1.8868   -0.8726 H         1 <0>         0.0561
     33 H5         -0.5289    1.8773    0.9072 H         1 <0>         0.0538
     34 H6          0.5123   -0.3556   -0.8948 H         1 <0>         0.0889
     35 H7          0.2319   -0.1594    2.1383 H         1 <0>         0.0938
     36 H8          0.7568   -1.6008    1.2356 H         1 <0>         0.0493
     37 H9          1.7647   -0.1336    1.2338 H         1 <0>         0.0508
     38 H10        -5.4787    1.9773    2.6365 H         1 <0>         0.1242
     39 H11        -5.5061    2.1441    5.0881 H         1 <0>         0.1319
     40 H12        -3.6846    1.1701    6.4215 H         1 <0>         0.1311
     41 H13        -1.8249    0.0232    5.3321 H         1 <0>         0.1307
     42 H14        -1.4721   -2.4889    0.8396 H         1 <0>         0.3977
     43 H15        -1.2236   -4.4917   -2.0101 H         1 <0>         0.4463
     44 H16        -1.4519   -4.2412    0.8760 H         1 <0>         0.4167
     45 H17        -1.5792   -5.0480    2.5202 H         1 <0>         0.1294
     46 H18        -1.7279   -6.2987    4.6288 H         1 <0>         0.1348
     47 H19        -1.6856   -8.7582    4.6171 H         1 <0>         0.1339
     48 H20        -1.4927   -9.9862    2.4982 H         1 <0>         0.1389
     49 H21        -2.2435  -10.6678    0.6609 H         1 <0>         0.0585
     50 H22        -1.2356  -10.7360   -0.8046 H         1 <0>         0.1054
     51 H23        -0.4691  -10.6445    0.7992 H         1 <0>         0.0588
@<TRIPOS>BOND
     1    1    2 1
     2    1   31 1
     3    1   32 1
     4    1   33 1
     5    2    3 1
     6    2    4 1
     7    2   34 1
     8    3   35 1
     9    3   36 1
    10    3   37 1
    11    4    5 1
    12    4    6 1
    13    4   16 1
    14    6   15 2
    15    6    7 1
    16    7    8 1
    17    7    9 1
    18    9   14 ar
    19    9   10 ar
    20   10   11 ar
    21   10   38 1
    22   11   12 ar
    23   11   39 1
    24   12   13 ar
    25   12   40 1
    26   13   14 ar
    27   13   41 1
    28   14   15 1
    29   16   17 am
    30   16   42 1
    31   17   18 2
    32   17   19 am
    33   19   20 1
    34   19   43 1
    35   20   21 am
    36   20   44 1
    37   21   22 2
    38   21   23 1
    39   23   28 ar
    40   23   24 ar
    41   24   25 ar
    42   24   45 1
    43   25   26 ar
    44   25   46 1
    45   26   27 ar
    46   26   47 1
    47   27   28 ar
    48   27   48 1
    49   28   29 1
    50   29   30 1
    51   30   49 1
    52   30   50 1
    53   30   51 1
@<TRIPOS>MOLECULE
ZINC37182089
   29    29     0     0     0
SMALL
USER_CHARGES

@<TRIPOS>ATOM
      1 C1         -0.0178    1.4608    0.0101 C.3       1 <0>         0.1018
      2 N1          0.0021   -0.0041    0.0020 N.am      1 <0>        -0.7407
      3 C2          0.6044   -0.6754    1.0035 C.2       1 <0>         0.6919
      4 O1          1.1310   -0.0655    1.9134 O.2       1 <0>        -0.5246
      5 N2          0.6227   -2.0230    0.9961 N.am      1 <0>        -0.6882
      6 C3          1.2250   -2.6943    1.9977 C.2       1 <0>         0.5363
      7 O2          1.7503   -2.0859    2.9052 O.2       1 <0>        -0.4415
      8 C4          1.2454   -4.2011    1.9894 C.3       1 <0>        -0.1514
      9 S1          2.1228   -4.8020    3.4590 S.3       1 <0>        -0.0388
     10 C5          2.0612   -6.5562    3.3046 C.ar      1 <0>        -0.1574
     11 C6          1.4317   -7.1356    2.2102 C.ar      1 <0>        -0.0844
     12 C7          1.3835   -8.5102    2.0895 C.ar      1 <0>        -0.1798
     13 C8          1.9639   -9.3135    3.0623 C.ar      1 <0>         0.2141
     14 C9          2.5932   -8.7345    4.1565 C.ar      1 <0>        -0.1777
     15 C10         2.6470   -7.3599    4.2745 C.ar      1 <0>        -0.0446
     16 N3          1.9141  -10.7073    2.9402 N.pl3     1 <0>        -0.8781
     17 H1          1.0048    1.8381    0.0023 H         1 <0>         0.0632
     18 H2         -0.5450    1.8219   -0.8730 H         1 <0>         0.0816
     19 H3         -0.5280    1.8123    0.9069 H         1 <0>         0.0632
     20 H4         -0.4183   -0.4908   -0.7241 H         1 <0>         0.4008
     21 H5          0.2023   -2.5097    0.2700 H         1 <0>         0.4112
     22 H6          0.2228   -4.5784    1.9971 H         1 <0>         0.1225
     23 H7          1.7556   -4.5526    1.0926 H         1 <0>         0.1224
     24 H8          0.9797   -6.5109    1.4539 H         1 <0>         0.1200
     25 H9          0.8942   -8.9607    1.2386 H         1 <0>         0.1235
     26 H10         3.0441   -9.3595    4.9131 H         1 <0>         0.1269
     27 H11         3.1403   -6.9096    5.1232 H         1 <0>         0.1293
     28 H12         1.4742  -11.1118    2.1761 H         1 <0>         0.3989
     29 H13         2.3194  -11.2685    3.6196 H         1 <0>         0.3997
@<TRIPOS>BOND
     1    1    2 1
     2    1   17 1
     3    1   18 1
     4    1   19 1
     5    2    3 am
     6    2   20 1
     7    3    4 2
     8    3    5 am
     9    5    6 am
    10    5   21 1
    11    6    7 2
    12    6    8 1
    13    8    9 1
    14    8   22 1
    15    8   23 1
    16    9   10 1
    17   10   15 ar
    18   10   11 ar
    19   11   12 ar
    20   11   24 1
    21   12   13 ar
    22   12   25 1
    23   13   14 ar
    24   13   16 1
    25   14   15 ar
    26   14   26 1
    27   15   27 1
    28   16   28 1
    29   16   29 1
@<TRIPOS>MOLECULE
ZINC42431201
   39    40     0     0     0
SMALL
USER_CHARGES

@<TRIPOS>ATOM
      1 C1         -0.0187    1.5258    0.0104 C.3       1 <0>        -0.1168
      2 C2          1.4167    2.0553   -0.0004 C.3       1 <0>        -0.1283
      3 C3          2.1567    1.5485    1.2391 C.3       1 <0>        -0.1282
      4 C4          2.1775    0.0187    1.2307 C.3       1 <0>         0.1492
      5 H1          2.6876   -0.3328    0.3339 H         1 <0>         0.1137
      6 C5          0.7421   -0.5109    1.2415 C.3       1 <0>         0.0209
      7 H2          0.2319   -0.1594    2.1383 H         1 <0>         0.1440
      8 C6          0.0021   -0.0041    0.0020 C.3       1 <0>        -0.1369
      9 N1          0.7620   -1.9797    1.2335 N.4       1 <0>        -0.6354
     10 N2          2.8860   -0.4666    2.4176 N.am      1 <0>        -0.7695
     11 C7          4.2292   -0.5771    2.4023 C.2       1 <0>         0.7261
     12 O1          4.8528   -0.2739    1.4036 O.2       1 <0>        -0.5597
     13 N3          4.8810   -1.0235    3.4942 N.am      1 <0>        -0.5986
     14 C8          4.2520   -1.4300    4.7641 C.3       1 <0>         0.1002
     15 C9          5.3614   -1.2529    5.8307 C.3       1 <0>        -0.1327
     16 C10         6.6232   -1.6963    5.0442 C.3       1 <0>        -0.1088
     17 C11         6.3366   -1.1919    3.6140 C.3       1 <0>         0.0802
     18 H3          6.8349   -0.2359    3.4533 H         1 <0>         0.0700
     19 C12         6.8206   -2.2013    2.6051 C.2       1 <0>         0.4982
     20 O2          8.0159   -2.3501    2.4167 O.co2     1 <0>        -0.6898
     21 O3          6.0167   -2.8693    1.9772 O.co2     1 <0>        -0.6897
     22 H4         -0.5289    1.8773    0.9072 H         1 <0>         0.0741
     23 H5         -0.5459    1.8868   -0.8726 H         1 <0>         0.0852
     24 H6          1.9269    1.7038   -0.8972 H         1 <0>         0.0743
     25 H7          1.4019    3.1452    0.0056 H         1 <0>         0.0799
     26 H8          3.1793    1.9258    1.2314 H         1 <0>         0.0915
     27 H9          1.6465    1.9000    2.1359 H         1 <0>         0.0721
     28 H10        -1.0205   -0.3814    0.0098 H         1 <0>         0.0916
     29 H11         0.5123   -0.3556   -0.8948 H         1 <0>         0.0923
     30 H12         1.2500   -2.3140    2.0509 H         1 <0>         0.4365
     31 H13        -0.1846   -2.3290    1.2406 H         1 <0>         0.4329
     32 H14         2.3885   -0.7085    3.2143 H         1 <0>         0.3878
     33 H15         3.4024   -0.7856    4.9899 H         1 <0>         0.0607
     34 H16         3.9363   -2.4721    4.7146 H         1 <0>         0.0635
     35 H17         5.4411   -0.2114    6.1423 H         1 <0>         0.0738
     36 H18         5.1867   -1.9032    6.6878 H         1 <0>         0.0814
     37 H19         7.5171   -1.2230    5.4506 H         1 <0>         0.0815
     38 H20         6.7220   -2.7817    5.0539 H         1 <0>         0.0747
     39 H21         1.2343   -2.3051    0.4033 H         1 <0>         0.4381
@<TRIPOS>BOND
     1    1    8 1
     2    1    2 1
     3    1   22 1
     4    1   23 1
     5    2    3 1
     6    2   24 1
     7    2   25 1
     8    3    4 1
     9    3   26 1
    10    3   27 1
    11    4    5 1
    12    4    6 1
    13    4   10 1
    14    6    7 1
    15    6    8 1
    16    6    9 1
    17    8   28 1
    18    8   29 1
    19    9   30 1
    20    9   31 1
    21    9   39 1
    22   10   11 am
    23   10   32 1
    24   11   12 2
    25   11   13 am
    26   13   17 1
    27   13   14 1
    28   14   15 1
    29   14   33 1
    30   14   34 1
    31   15   16 1
    32   15   35 1
    33   15   36 1
    34   16   17 1
    35   16   37 1
    36   16   38 1
    37   17   18 1
    38   17   19 1
    39   19   20 2
    40   19   21 1
@<TRIPOS>MOLECULE
ZINC50440969
   34    34     0     0     0
SMALL
USER_CHARGES

@<TRIPOS>ATOM
      1 C1          0.0098    1.5031    0.0078 C.3       1 <0>        -0.1024
      2 C2          0.0189   -0.0039    0.0006 C.ar      1 <0>         0.1459
      3 C3         -0.2018   -0.6796   -1.1824 C.ar      1 <0>        -0.1976
      4 C4         -0.1928   -2.0681   -1.1855 C.ar      1 <0>        -0.1221
      5 C5          0.0399   -2.7302    0.0110 C.ar      1 <0>         0.0019
      6 C6          0.2553   -1.9808    1.1683 C.ar      1 <0>         0.4066
      7 N1          0.2433   -0.6585    1.1248 N.ar      1 <0>        -0.5156
      8 N2          0.4898   -2.6299    2.3777 N.pl3     1 <0>        -0.8433
      9 O1          0.0574   -4.0894    0.0556 O.3       1 <0>        -0.2850
     10 C7         -0.0506   -4.7809   -1.1904 C.3       1 <0>         0.0747
     11 H1          0.4638   -4.2139   -1.9663 H         1 <0>         0.1035
     12 C8         -1.5267   -4.9325   -1.5633 C.3       1 <0>        -0.1788
     13 C9          0.5783   -6.1446   -1.0642 C.2       1 <0>         0.5211
     14 O2          0.9889   -6.5256    0.0109 O.2       1 <0>        -0.4383
     15 N3          0.6843   -6.9405   -2.1467 N.am      1 <0>        -0.6877
     16 C10         1.2467   -8.1601   -2.0339 C.2       1 <0>         0.6925
     17 O3          1.6583   -8.5421   -0.9560 O.2       1 <0>        -0.5250
     18 N4          1.3527   -8.9561   -3.1163 N.am      1 <0>        -0.7400
     19 C11         1.9640  -10.2817   -2.9937 C.3       1 <0>         0.1016
     20 H2          1.0162    1.8734   -0.1876 H         1 <0>         0.0782
     21 H3         -0.6674    1.8661   -0.7652 H         1 <0>         0.0762
     22 H4         -0.3259    1.8597    0.9816 H         1 <0>         0.0764
     23 H5         -0.3803   -0.1336   -2.0970 H         1 <0>         0.1357
     24 H6         -0.3633   -2.6197   -2.0981 H         1 <0>         0.1392
     25 H7          0.5030   -3.5992    2.4133 H         1 <0>         0.4158
     26 H8          0.6400   -2.1128    3.1845 H         1 <0>         0.4053
     27 H9         -2.0411   -5.4994   -0.7873 H         1 <0>         0.0789
     28 H10        -1.9815   -3.9461   -1.6545 H         1 <0>         0.0822
     29 H11        -1.6090   -5.4599   -2.5136 H         1 <0>         0.0797
     30 H12         0.3558   -6.6356   -3.0069 H         1 <0>         0.4103
     31 H13         1.0242   -8.6512   -3.9765 H         1 <0>         0.4010
     32 H14         1.9614  -10.7744   -3.9660 H         1 <0>         0.0822
     33 H15         2.9905  -10.1774   -2.6420 H         1 <0>         0.0632
     34 H16         1.3951  -10.8798   -2.2818 H         1 <0>         0.0634
@<TRIPOS>BOND
     1    1    2 1
     2    1   20 1
     3    1   21 1
     4    1   22 1
     5    2    7 ar
     6    2    3 ar
     7    3    4 ar
     8    3   23 1
     9    4    5 ar
    10    4   24 1
    11    5    6 ar
    12    5    9 1
    13    6    7 ar
    14    6    8 1
    15    8   25 1
    16    8   26 1
    17    9   10 1
    18   10   11 1
    19   10   12 1
    20   10   13 1
    21   12   27 1
    22   12   28 1
    23   12   29 1
    24   13   14 2
    25   13   15 am
    26   15   16 am
    27   15   30 1
    28   16   17 2
    29   16   18 am
    30   18   19 1
    31   18   31 1
    32   19   32 1
    33   19   33 1
    34   19   34 1
@<TRIPOS>MOLECULE
ZINC54399225
   27    28     0     0     0
SMALL
USER_CHARGES

@<TRIPOS>ATOM
      1 C1          0.6987    0.1939    1.1817 C.ar      1 <0>        -0.1853
      2 C2          1.8850    0.9009    1.1749 C.ar      1 <0>        -0.0616
      3 C3          2.3806    1.4135   -0.0151 C.ar      1 <0>         0.0175
      4 C4          1.6850    1.2164   -1.1992 C.ar      1 <0>        -0.0580
      5 C5          0.4984    0.5102   -1.1940 C.ar      1 <0>        -0.1859
      6 C6          0.0018   -0.0037   -0.0032 C.ar      1 <0>         0.2246
      7 N1         -1.2000   -0.7198    0.0028 N.pl3     1 <0>        -0.8751
      8 O1          3.5486    2.1099   -0.0209 O.3       1 <0>        -0.1984
      9 C7          4.7054    1.4117    0.0685 C.ar      1 <0>         0.3240
     10 C8          5.9295    2.0877    0.1759 C.ar      1 <0>         0.0037
     11 N2          7.0603    1.3932    0.2637 N.ar      1 <0>        -0.3778
     12 C9          7.0270    0.0760    0.2495 C.ar      1 <0>         0.0059
     13 C10         5.8160   -0.5925    0.1428 C.ar      1 <0>         0.1256
     14 N3          4.6855    0.0855    0.0604 N.ar      1 <0>        -0.4852
     15 C11         5.9628    3.5655    0.1910 C.2       1 <0>         0.5806
     16 O2          4.9276    4.1976    0.1102 O.2       1 <0>        -0.5105
     17 N4          7.1408    4.2120    0.2943 N.am      1 <0>        -0.8367
     18 H1          0.3153   -0.2089    2.1075 H         1 <0>         0.1275
     19 H2          2.4269    1.0550    2.0963 H         1 <0>         0.1239
     20 H3          2.0715    1.6158   -2.1252 H         1 <0>         0.1294
     21 H4         -0.0433    0.3575   -2.1157 H         1 <0>         0.1290
     22 H5         -1.5468   -1.0783    0.8348 H         1 <0>         0.4002
     23 H6         -1.6866   -0.8577   -0.8249 H         1 <0>         0.4003
     24 H7          7.9467   -0.4857    0.3209 H         1 <0>         0.1829
     25 H8          5.7972   -1.6723    0.1315 H         1 <0>         0.1817
     26 H9          7.9669    3.7076    0.3588 H         1 <0>         0.4098
     27 H10         7.1627    5.1817    0.3042 H         1 <0>         0.4080
@<TRIPOS>BOND
     1    1    6 ar
     2    1    2 ar
     3    1   18 1
     4    2    3 ar
     5    2   19 1
     6    3    4 ar
     7    3    8 1
     8    4    5 ar
     9    4   20 1
    10    5    6 ar
    11    5   21 1
    12    6    7 1
    13    7   22 1
    14    7   23 1
    15    8    9 1
    16    9   14 ar
    17    9   10 ar
    18   10   11 ar
    19   10   15 1
    20   11   12 ar
    21   12   13 ar
    22   12   24 1
    23   13   14 ar
    24   13   25 1
    25   15   16 2
    26   15   17 am
    27   17   26 1
    28   17   27 1
@<TRIPOS>MOLECULE
ZINC62936187
   31    31     0     0     0
SMALL
USER_CHARGES

@<TRIPOS>ATOM
      1 C1         -0.0187    1.5258    0.0104 C.3       1 <0>        -0.1253
      2 C2          0.0021   -0.0041    0.0020 C.3       1 <0>        -0.1503
      3 C3          0.8145   -0.5230   -1.2065 C.3       1 <0>        -0.1150
      4 C4          2.2101   -0.7994   -0.5929 C.3       1 <0>        -0.0095
      5 N1          1.8889   -1.3337    0.7552 N.4       1 <0>        -0.3799
      6 C5          0.7433   -0.5354    1.2429 C.3       1 <0>         0.0026
      7 C6          3.0399   -1.1688    1.6529 C.3       1 <0>        -0.0219
      8 C7          4.1744   -2.0411    1.1805 C.2       1 <0>         0.5108
      9 O1          4.0376   -2.7318    0.1936 O.2       1 <0>        -0.4494
     10 N2          5.3410   -2.0533    1.8552 N.am      1 <0>        -0.6797
     11 C8          6.3556   -2.8334    1.4327 C.2       1 <0>         0.6973
     12 O2          6.2185   -3.5259    0.4434 O.2       1 <0>        -0.5223
     13 N3          7.5223   -2.8457    2.1074 N.am      1 <0>        -0.8491
     14 C9         -1.4038   -0.5452   -0.0390 C.2       1 <0>         0.5027
     15 O3         -2.1417   -0.2556   -0.9654 O.co2     1 <0>        -0.6614
     16 O4         -1.8034   -1.2725    0.8542 O.co2     1 <0>        -0.6827
     17 H1          1.0039    1.9031    0.0027 H         1 <0>         0.0464
     18 H2         -0.5459    1.8868   -0.8726 H         1 <0>         0.0775
     19 H3         -0.5289    1.8773    0.9072 H         1 <0>         0.0610
     20 H4          0.3774   -1.4409   -1.5996 H         1 <0>         0.0943
     21 H5          0.8788    0.2385   -1.9837 H         1 <0>         0.1109
     22 H6          2.7494   -1.5410   -1.1822 H         1 <0>         0.1385
     23 H7          2.7852    0.1232   -0.5141 H         1 <0>         0.1239
     24 H8          1.1018    0.2984    1.8465 H         1 <0>         0.1188
     25 H9          0.0765   -1.1645    1.8326 H         1 <0>         0.1549
     26 H10         3.3573   -0.1261    1.6489 H         1 <0>         0.1612
     27 H11         2.7560   -1.4583    2.6647 H         1 <0>         0.1633
     28 H12         5.4505   -1.5007    2.6448 H         1 <0>         0.4183
     29 H13         7.6318   -2.2930    2.8970 H         1 <0>         0.4036
     30 H14         8.2525   -3.4071    1.8034 H         1 <0>         0.4271
     31 H15         1.6323   -2.3075    0.6915 H         1 <0>         0.4333
@<TRIPOS>BOND
     1    1    2 1
     2    1   17 1
     3    1   18 1
     4    1   19 1
     5    2    6 1
     6    2    3 1
     7    2   14 1
     8    3    4 1
     9    3   20 1
    10    3   21 1
    11    4    5 1
    12    4   22 1
    13    4   23 1
    14    5    6 1
    15    5    7 1
    16    5   31 1
    17    6   24 1
    18    6   25 1
    19    7    8 1
    20    7   26 1
    21    7   27 1
    22    8    9 2
    23    8   10 am
    24   10   11 am
    25   10   28 1
    26   11   12 2
    27   11   13 am
    28   13   29 1
    29   13   30 1
    30   14   15 2
    31   14   16 1
@<TRIPOS>MOLECULE
ZINC35255572
   18    18     0     0     0
SMALL
USER_CHARGES

@<TRIPOS>ATOM
      1 C1         -0.0187    1.5258    0.0104 C.3       1 <0>        -0.1771
      2 C2          0.0021   -0.0041    0.0020 C.3       1 <0>         0.1375
      3 H1         -1.0205   -0.3814    0.0098 H         1 <0>         0.1510
      4 C3          0.7309   -0.5033    1.2229 C.2       1 <0>         0.1146
      5 N1          0.2410   -1.3749    2.1305 N.pl3     1 <0>        -0.5490
      6 H2         -0.6357   -1.7899    2.1152 H         1 <0>         0.4291
      7 C4          1.2126   -1.5640    3.0760 C.2       1 <0>        -0.0015
      8 C5          2.2622   -0.8019    2.7138 C.2       1 <0>        -0.0150
      9 N2          1.9423   -0.1692    1.5752 N.2       1 <0>        -0.4541
     10 N3          0.6897   -0.4778   -1.2066 N.4       1 <0>        -0.6325
     11 H3          1.0039    1.9031    0.0027 H         1 <0>         0.0953
     12 H4         -0.5459    1.8868   -0.8726 H         1 <0>         0.0922
     13 H5         -0.5289    1.8773    0.9072 H         1 <0>         0.1067
     14 H6          1.1495   -2.2015    3.9454 H         1 <0>         0.1955
     15 H7          3.1987   -0.7178    3.2450 H         1 <0>         0.1876
     16 H8          1.6363   -0.1286   -1.2138 H         1 <0>         0.4425
     17 H9          0.7033   -1.4867   -1.2121 H         1 <0>         0.4356
     18 H10         0.2017   -0.1436   -2.0240 H         1 <0>         0.4415
@<TRIPOS>BOND
     1    1    2 1
     2    1   11 1
     3    1   12 1
     4    1   13 1
     5    2    3 1
     6    2    4 1
     7    2   10 1
     8    4    9 2
     9    4    5 1
    10    5    6 1
    11    5    7 1
    12    7    8 2
    13    7   14 1
    14    8    9 1
    15    8   15 1
    16   10   16 1
    17   10   17 1
    18   10   18 1
@<TRIPOS>MOLECULE
ZINC39134688
   14    14     0     0     0
SMALL
USER_CHARGES

@<TRIPOS>ATOM
      1 C1         -0.0157    1.3040    0.0092 C.2       1 <0>         0.0084
      2 C2          1.1548    1.9955    0.0017 C.2       1 <0>        -0.1897
      3 S1          2.3027    0.7639   -0.0158 S.3       1 <0>         0.3088
      4 C3          1.1769   -0.6213   -0.0125 C.2       1 <0>        -0.1010
      5 N1          0.0021   -0.0041    0.0020 N.2       1 <0>        -0.3977
      6 C4          1.4730   -2.0654   -0.0235 C.cat     1 <0>         0.6617
      7 N2          2.7383   -2.4865   -0.0383 N.pl3     1 <0>        -0.7565
      8 N3          0.4756   -2.9506   -0.0187 N.pl3     1 <0>        -0.7367
      9 H1         -0.9572    1.8328    0.0255 H         1 <0>         0.1954
     10 H2          1.3093    3.0644    0.0057 H         1 <0>         0.2268
     11 H3          3.4637   -1.8426   -0.0418 H         1 <0>         0.4447
     12 H4         -0.4447   -2.6443   -0.0079 H         1 <0>         0.4544
     13 H5          0.6704   -3.9008   -0.0259 H         1 <0>         0.4385
     14 H6          2.9331   -3.4367   -0.0455 H         1 <0>         0.4429
@<TRIPOS>BOND
     1    1    5 1
     2    1    2 2
     3    1    9 1
     4    2    3 1
     5    2   10 1
     6    3    4 1
     7    4    5 2
     8    4    6 1
     9    6    7 2
    10    6    8 1
    11    7   11 1
    12    7   14 1
    13    8   12 1
    14    8   13 1
@<TRIPOS>MOLECULE
ZINC44588049
   16    16     0     0     0
SMALL
USER_CHARGES

@<TRIPOS>ATOM
      1 C1         -0.0560    1.3011   -1.0321 C.2       1 <0>        -0.2653
      2 C2          1.1638    1.6612   -1.4658 C.2       1 <0>         0.0997
      3 O1          1.9241    0.5582   -1.5502 O.3       1 <0>        -0.0203
      4 N1          1.1391   -0.5499   -1.1484 N.2       1 <0>        -0.2683
      5 C3         -0.0556   -0.1026   -0.8357 C.2       1 <0>         0.0743
      6 C4         -1.1955   -0.9173   -0.3631 C.cat     1 <0>         0.5712
      7 N2         -1.0270   -2.1802   -0.0977 N.pl3     1 <0>        -0.3471
      8 N3          0.2600   -2.7337   -0.1136 N.pl3     1 <0>        -0.7202
      9 N4         -2.4525   -0.3317   -0.2015 N.pl3     1 <0>        -0.7748
     10 H1         -0.8895    1.9656   -0.8591 H         1 <0>         0.1827
     11 H2          1.4786    2.6660   -1.7057 H         1 <0>         0.2400
     12 H3          0.3771   -3.6845   -0.2658 H         1 <0>         0.4455
     13 H4          1.0338   -2.1661    0.0275 H         1 <0>         0.4395
     14 H5         -2.5780    0.6096   -0.3993 H         1 <0>         0.4479
     15 H6         -3.2002   -0.8661    0.1086 H         1 <0>         0.4371
     16 H7         -1.7924   -2.7382    0.1111 H         1 <0>         0.4580
@<TRIPOS>BOND
     1    1    5 1
     2    1    2 2
     3    1   10 1
     4    2    3 1
     5    2   11 1
     6    3    4 1
     7    4    5 2
     8    5    6 1
     9    6    7 2
    10    6    9 1
    11    7    8 1
    12    7   16 1
    13    8   12 1
    14    8   13 1
    15    9   14 1
    16    9   15 1
@<TRIPOS>MOLECULE
ZINC37412391
   21    21     0     0     0
SMALL
USER_CHARGES

@<TRIPOS>ATOM
      1 C1         -0.0184    1.5028    0.0103 C.3       1 <0>        -0.1030
      2 C2          0.0021   -0.0041    0.0020 C.2       1 <0>         0.0371
      3 C3          0.0083   -0.7894   -1.0919 C.2       1 <0>         0.0293
      4 N1          0.0285   -2.0846   -0.6496 N.pl3     1 <0>        -0.5030
      5 H1          0.0373   -2.8816   -1.2024 H         1 <0>         0.4655
      6 C4          0.0340   -2.0456    0.7003 C.cat     1 <0>         0.3316
      7 N2          0.0231   -0.7980    1.0829 N.pl3     1 <0>        -0.4671
      8 C5          0.0549   -3.2442    1.6135 C.3       1 <0>         0.1406
      9 H2         -0.4490   -4.0799    1.1279 H         1 <0>         0.1389
     10 C6          1.5043   -3.6291    1.9167 C.3       1 <0>        -0.1968
     11 N3         -0.6372   -2.9168    2.8672 N.3       1 <0>        -0.8396
     12 H3          1.0042    1.8801    0.0026 H         1 <0>         0.1018
     13 H4         -0.5455    1.8639   -0.8728 H         1 <0>         0.1092
     14 H5         -0.5286    1.8543    0.9071 H         1 <0>         0.0918
     15 H6         -0.0012   -0.4605   -2.1206 H         1 <0>         0.2295
     16 H7          2.0082   -2.7934    2.4024 H         1 <0>         0.0706
     17 H8          1.5195   -4.4960    2.5772 H         1 <0>         0.0963
     18 H9          2.0179   -3.8721    0.9865 H         1 <0>         0.0791
     19 H10        -0.6933   -3.7235    3.4707 H         1 <0>         0.3819
     20 H11        -0.1888   -2.1444    3.3367 H         1 <0>         0.3460
     21 H12         0.0277   -0.4930    2.0036 H         1 <0>         0.4602
@<TRIPOS>BOND
     1    1    2 1
     2    1   12 1
     3    1   13 1
     4    1   14 1
     5    2    7 1
     6    2    3 2
     7    3    4 1
     8    3   15 1
     9    4    5 1
    10    4    6 1
    11    6    7 2
    12    6    8 1
    13    7   21 1
    14    8    9 1
    15    8   10 1
    16    8   11 1
    17   10   16 1
    18   10   17 1
    19   10   18 1
    20   11   19 1
    21   11   20 1
@<TRIPOS>MOLECULE
ZINC18180628
   13    13     0     0     0
SMALL
USER_CHARGES

@<TRIPOS>ATOM
      1 C1         -0.0157    1.3054    0.0092 C.cat     1 <0>         0.5452
      2 N1          1.1450    1.9968    0.0019 N.am      1 <0>        -0.5980
      3 H1          1.1353    2.9668    0.0075 H         1 <0>         0.4644
      4 C2          2.3175    1.3298   -0.0129 C.2       1 <0>         0.6432
      5 O1          3.3718    1.9422   -0.0193 O.2       1 <0>        -0.4308
      6 N2          2.3159   -0.0061   -0.0201 N.2       1 <0>        -0.5555
      7 C3          1.1670   -0.6674   -0.0127 C.2       1 <0>         0.6451
      8 N3          0.0021   -0.0041    0.0020 N.pl3     1 <0>        -0.5772
      9 N4          1.1701   -2.0399   -0.0201 N.pl3     1 <0>        -0.7654
     10 H2          2.0112   -2.5230   -0.0308 H         1 <0>         0.4532
     11 H3          0.3312   -2.5269   -0.0147 H         1 <0>         0.4337
     12 H4         -0.9582    1.8326    0.0256 H         1 <0>         0.2761
     13 H5         -0.8332   -0.4973    0.0077 H         1 <0>         0.4660
@<TRIPOS>BOND
     1    1    8 2
     2    1    2 1
     3    1   12 1
     4    2    3 1
     5    2    4 am
     6    4    5 2
     7    4    6 1
     8    6    7 2
     9    7    8 1
    10    7    9 1
    11    8   13 1
    12    9   10 1
    13    9   11 1
@<TRIPOS>MOLECULE
ZINC13014561
   38    39     0     0     0
SMALL
USER_CHARGES
2,3,5-trichloro-6-[2-[(2,6-dimethylphenyl)amino]-2-oxo-ethoxy]benzoic acid
@<TRIPOS>ATOM
      1 C1          6.6565    4.6136    0.4141 C.3       1 <0>        -0.1139
      2 C2          7.5658    4.8855   -0.7564 C.ar      1 <0>        -0.0638
      3 C3          8.7307    5.6049   -0.5744 C.ar      1 <0>        -0.1150
      4 C4          9.5630    5.8594   -1.6489 C.ar      1 <0>        -0.1208
      5 C5          9.2347    5.3906   -2.9078 C.ar      1 <0>        -0.1193
      6 C6          8.0739    4.6661   -3.0954 C.ar      1 <0>        -0.0960
      7 C7          7.2361    4.4085   -2.0183 C.ar      1 <0>         0.1429
      8 N1          6.0594    3.6747   -2.2050 N.am      1 <0>        -0.6768
      9 C8          5.8014    2.6054   -1.4264 C.2       1 <0>         0.5218
     10 O1          6.6186    2.2395   -0.6083 O.2       1 <0>        -0.4887
     11 C9          4.4973    1.8642   -1.5722 C.3       1 <0>         0.0461
     12 O2          4.4603    0.7782   -0.6443 O.3       1 <0>        -0.2864
     13 C10         3.3458    0.0042   -0.6459 C.ar      1 <0>         0.1297
     14 C11         3.2737   -1.1116   -1.4677 C.ar      1 <0>        -0.0416
     15 C12         2.1385   -1.8994   -1.4690 C.ar      1 <0>        -0.0975
     16 C13         1.0648   -1.5837   -0.6517 C.ar      1 <0>        -0.0253
     17 C14         1.1191   -0.4779    0.1726 C.ar      1 <0>        -0.0026
     18 C15         2.2627    0.3282    0.1828 C.ar      1 <0>        -0.0692
     19 C16         2.3281    1.5105    1.0594 C.2       1 <0>         0.5084
     20 O3          2.7652    1.4064    2.1884 O.co2     1 <0>        -0.5989
     21 Cl1        -0.2318   -0.0838    1.1893 Cl        1 <0>        -0.0283
     22 Cl2        -0.3543   -2.5836   -0.6641 Cl        1 <0>        -0.0466
     23 Cl3         4.6122   -1.5188   -2.4954 Cl        1 <0>        -0.0483
     24 C17         7.7171    4.1552   -4.4676 C.3       1 <0>        -0.1134
     25 H1          7.0316    3.7572    0.9744 H         1 <0>         0.0870
     26 H2          6.6285    5.4886    1.0635 H         1 <0>         0.0627
     27 H3          5.6515    4.3983    0.0511 H         1 <0>         0.0633
     28 H4          8.9897    5.9727    0.4075 H         1 <0>         0.1245
     29 H5         10.4712    6.4257   -1.5048 H         1 <0>         0.1214
     30 H6          9.8868    5.5910   -3.7450 H         1 <0>         0.1225
     31 H7          5.4295    3.9357   -2.8949 H         1 <0>         0.4091
     32 H8          4.4107    1.4776   -2.5877 H         1 <0>         0.0824
     33 H9          3.6689    2.5432   -1.3701 H         1 <0>         0.1083
     34 H10         2.0879   -2.7667   -2.1106 H         1 <0>         0.1536
     35 H11         7.1185    4.9021   -4.9890 H         1 <0>         0.0702
     36 H12         8.6294    3.9622   -5.0320 H         1 <0>         0.0678
     37 H13         7.1454    3.2319   -4.3742 H         1 <0>         0.0657
     38 O4          1.9030    2.7075    0.6092 O.co2     1 <0>        -0.7346
@<TRIPOS>BOND
     1    1    2 1
     2    1   25 1
     3    1   26 1
     4    1   27 1
     5    2    7 ar
     6    2    3 ar
     7    3    4 ar
     8    3   28 1
     9    4    5 ar
    10    4   29 1
    11    5    6 ar
    12    5   30 1
    13    6    7 ar
    14    6   24 1
    15    7    8 1
    16    8    9 am
    17    8   31 1
    18    9   10 2
    19    9   11 1
    20   11   12 1
    21   11   32 1
    22   11   33 1
    23   12   13 1
    24   13   18 ar
    25   13   14 ar
    26   14   15 ar
    27   14   23 1
    28   15   16 ar
    29   15   34 1
    30   16   17 ar
    31   16   22 1
    32   17   18 ar
    33   17   21 1
    34   18   19 1
    35   19   20 2
    36   19   38 1
    37   24   35 1
    38   24   36 1
    39   24   37 1
@<TRIPOS>MOLECULE
ZINC13310984
   45    47     0     0     0
SMALL
USER_CHARGES
2-[5-[[(1R)-1-tetralin-6-ylethyl]sulfamoyl]-2-thienyl]acetic acid
@<TRIPOS>ATOM
      1 C1          0.8935    4.1026   -1.4021 C.3       1 <0>        -0.1726
      2 C2          1.1626    3.5849    0.0123 C.3       1 <0>         0.1886
      3 H1          2.1291    3.9532    0.3563 H         1 <0>         0.1018
      4 C3          1.1740    2.0780    0.0020 C.ar      1 <0>        -0.0821
      5 C4         -0.0166    1.3751    0.0096 C.ar      1 <0>        -0.1114
      6 C5          0.0021   -0.0041    0.0020 C.ar      1 <0>        -0.1178
      7 C6          1.2079   -0.6936   -0.0128 C.ar      1 <0>        -0.0786
      8 C7          2.3933    0.0062   -0.0253 C.ar      1 <0>        -0.0726
      9 C8          2.3723    1.3951   -0.0155 C.ar      1 <0>        -0.1085
     10 C9          3.7366   -0.6748   -0.0522 C.3       1 <0>        -0.0825
     11 C10         3.6069   -2.1348    0.3773 C.3       1 <0>        -0.1202
     12 C11         2.4931   -2.7855   -0.4514 C.3       1 <0>        -0.1201
     13 C12         1.1552   -2.1990   -0.0059 C.3       1 <0>        -0.0805
     14 N1          0.1101    4.0591    0.9144 N.pl3     1 <0>        -1.1109
     15 S1          0.3394    5.4384    1.8016 S.o2      1 <0>         2.7355
     16 O1         -0.8532    5.6455    2.5459 O.2       1 <0>        -0.9583
     17 O2          1.6124    5.3159    2.4211 O.2       1 <0>        -0.9524
     18 C13         0.4606    6.7768    0.6620 C.2       1 <0>        -0.8008
     19 C14        -0.5230    7.5645    0.1627 C.2       1 <0>         0.0205
     20 C15        -0.1912    8.5670   -0.7291 C.2       1 <0>        -0.2214
     21 C16         1.1081    8.7328   -1.0781 C.2       1 <0>        -0.0159
     22 S2          1.9117    7.4523   -0.1286 S.3       1 <0>         0.1508
     23 C17         1.7169    9.7404   -2.0189 C.3       1 <0>        -0.1031
     24 C18         2.0950   10.9806   -1.2508 C.2       1 <0>         0.4683
     25 O3          1.8909   11.0402   -0.0614 O.co2     1 <0>        -0.6223
     26 H2          0.8852    5.1925   -1.3946 H         1 <0>         0.0714
     27 H3          1.6766    3.7498   -2.0732 H         1 <0>         0.0717
     28 H4         -0.0730    3.7342   -1.7460 H         1 <0>         0.0645
     29 H5         -0.9581    1.9042    0.0169 H         1 <0>         0.1217
     30 H6         -0.9284   -0.5523    0.0073 H         1 <0>         0.1207
     31 H7          3.3019    1.9448   -0.0220 H         1 <0>         0.1255
     32 H8          4.1410   -0.6322   -1.0635 H         1 <0>         0.0762
     33 H9          4.4148   -0.1590    0.6276 H         1 <0>         0.0759
     34 H10         4.5483   -2.6547    0.1995 H         1 <0>         0.0671
     35 H11         3.3542   -2.1848    1.4364 H         1 <0>         0.0654
     36 H12         2.6520   -2.5753   -1.5091 H         1 <0>         0.0652
     37 H13         2.4951   -3.8631   -0.2871 H         1 <0>         0.0661
     38 H14         0.9285   -2.5460    1.0022 H         1 <0>         0.0746
     39 H15         0.3716   -2.5343   -0.6854 H         1 <0>         0.0727
     40 H16        -0.7211    3.5651    0.9919 H         1 <0>         0.4161
     41 H17        -1.5507    7.4108    0.4570 H         1 <0>         0.1389
     42 H18        -0.9557    9.2084   -1.1421 H         1 <0>         0.1386
     43 H19         2.6071    9.3140   -2.4815 H         1 <0>         0.0911
     44 H20         0.9937    9.9985   -2.7925 H         1 <0>         0.0999
     45 O4          2.6583   12.0190   -1.8880 O.co2     1 <0>        -0.7574
@<TRIPOS>BOND
     1    1    2 1
     2    1   26 1
     3    1   27 1
     4    1   28 1
     5    2    3 1
     6    2    4 1
     7    2   14 1
     8    4    9 ar
     9    4    5 ar
    10    5    6 ar
    11    5   29 1
    12    6    7 ar
    13    6   30 1
    14    7   13 1
    15    7    8 ar
    16    8    9 ar
    17    8   10 1
    18    9   31 1
    19   10   11 1
    20   10   32 1
    21   10   33 1
    22   11   12 1
    23   11   34 1
    24   11   35 1
    25   12   13 1
    26   12   36 1
    27   12   37 1
    28   13   38 1
    29   13   39 1
    30   14   15 1
    31   14   40 1
    32   15   16 2
    33   15   17 2
    34   15   18 1
    35   18   22 1
    36   18   19 2
    37   19   20 1
    38   19   41 1
    39   20   21 2
    40   20   42 1
    41   21   22 1
    42   21   23 1
    43   23   24 1
    44   23   43 1
    45   23   44 1
    46   24   25 2
    47   24   45 1
@<TRIPOS>MOLECULE
ZINC40123946
   44    46     0     0     0
SMALL
USER_CHARGES

@<TRIPOS>ATOM
      1 C1          1.1440    1.3763   -0.4301 C.3       1 <0>        -0.0982
      2 C2          0.8543   -0.1006   -0.3539 C.ar      1 <0>        -0.1382
      3 C3          0.8159   -0.8539   -1.5057 C.ar      1 <0>        -0.0357
      4 C4          0.5471   -2.2240   -1.4339 C.ar      1 <0>        -0.1645
      5 C5          0.3183   -2.8235   -0.1913 C.ar      1 <0>        -0.0150
      6 C6          0.3585   -2.0632    0.9552 C.ar      1 <0>        -0.2235
      7 C7          0.6319   -0.7016    0.8799 C.ar      1 <0>         0.1409
      8 O1          0.6761    0.0433    2.0132 O.3       1 <0>        -0.3092
      9 C8          0.4384   -0.6376    3.2468 C.3       1 <0>         0.0836
     10 C9          0.5272    0.3435    4.3873 C.2       1 <0>        -0.1506
     11 C10        -0.3775    0.3303    5.3346 C.2       1 <0>        -0.1767
     12 C11         0.5045   -3.0354   -2.6662 C.2       1 <0>         0.5214
     13 O2          0.6011   -2.4967   -3.7532 O.2       1 <0>        -0.4801
     14 C12         0.3457   -4.4907   -2.5807 C.2       1 <0>        -0.5002
     15 C13         1.3004   -5.3883   -2.2427 C.2       1 <0>         0.2541
     16 C14         0.7230   -6.7483   -2.2791 C.2       1 <0>         0.5118
     17 O3          1.3290   -7.7701   -2.0246 O.2       1 <0>        -0.5395
     18 N1         -0.5729   -6.6876   -2.6356 N.am      1 <0>        -0.7258
     19 C15        -0.9171   -5.2765   -2.8466 C.3       1 <0>         0.2610
     20 H1         -1.7011   -4.9718   -2.1534 H         1 <0>         0.0794
     21 C16        -1.3700   -5.0639   -4.2681 C.ar      1 <0>        -0.0583
     22 C17        -0.9741   -5.9432   -5.2586 C.ar      1 <0>        -0.0965
     23 C18        -1.3895   -5.7484   -6.5625 C.ar      1 <0>        -0.1167
     24 C19        -2.2010   -4.6741   -6.8769 C.ar      1 <0>        -0.1213
     25 C20        -2.5974   -3.7944   -5.8875 C.ar      1 <0>        -0.1107
     26 C21        -2.1866   -3.9921   -4.5811 C.ar      1 <0>        -0.0207
     27 Cl1        -2.6895   -2.8912   -3.3366 Cl        1 <0>        -0.0707
     28 O4          2.5803   -5.0883   -1.9224 O.3       1 <0>        -0.6599
     29 H2          2.2195    1.5397   -0.3610 H         1 <0>         0.0639
     30 H3          0.7768    1.7702   -1.3778 H         1 <0>         0.0625
     31 H4          0.6452    1.8873    0.3934 H         1 <0>         0.0655
     32 H5          0.9929   -0.3870   -2.4634 H         1 <0>         0.1344
     33 H6          0.1100   -3.8815   -0.1316 H         1 <0>         0.1346
     34 H7          0.1819   -2.5253    1.9152 H         1 <0>         0.1261
     35 H8         -0.5554   -1.0851    3.2291 H         1 <0>         0.0675
     36 H9          1.1865   -1.4189    3.3806 H         1 <0>         0.0739
     37 H10         1.3367    1.0575    4.4236 H         1 <0>         0.1188
     38 H11        -1.1870   -0.3837    5.2983 H         1 <0>         0.0993
     39 H12        -0.3138    1.0334    6.1520 H         1 <0>         0.1059
     40 H13        -1.1743   -7.4424   -2.7324 H         1 <0>         0.4063
     41 H14        -0.3399   -6.7824   -5.0137 H         1 <0>         0.1268
     42 H15        -1.0797   -6.4354   -7.3360 H         1 <0>         0.1226
     43 H16        -2.5250   -4.5221   -7.8959 H         1 <0>         0.1246
     44 H17        -3.2311   -2.9550   -6.1333 H         1 <0>         0.1272
@<TRIPOS>BOND
     1    1    2 1
     2    1   29 1
     3    1   30 1
     4    1   31 1
     5    2    7 ar
     6    2    3 ar
     7    3    4 ar
     8    3   32 1
     9    4    5 ar
    10    4   12 1
    11    5    6 ar
    12    5   33 1
    13    6    7 ar
    14    6   34 1
    15    7    8 1
    16    8    9 1
    17    9   10 1
    18    9   35 1
    19    9   36 1
    20   10   11 2
    21   10   37 1
    22   11   38 1
    23   11   39 1
    24   12   13 2
    25   12   14 1
    26   14   19 1
    27   14   15 2
    28   15   16 1
    29   15   28 1
    30   16   17 2
    31   16   18 am
    32   18   19 1
    33   18   40 1
    34   19   20 1
    35   19   21 1
    36   21   26 ar
    37   21   22 ar
    38   22   23 ar
    39   22   41 1
    40   23   24 ar
    41   23   42 1
    42   24   25 ar
    43   24   43 1
    44   25   26 ar
    45   25   44 1
    46   26   27 1
@<TRIPOS>MOLECULE
ZINC16692686
   37    39     0     0     0
SMALL
USER_CHARGES

@<TRIPOS>ATOM
      1 C1          0.8499    0.9679    0.6008 C.3       1 <0>         0.0214
      2 O1          1.2598   -0.3969    0.7078 O.3       1 <0>        -0.3042
      3 C2          1.9945   -0.9032   -0.3185 C.ar      1 <0>         0.1021
      4 C3          2.3164   -0.1032   -1.3972 C.ar      1 <0>        -0.1595
      5 C4          3.0730   -0.6281   -2.4520 C.ar      1 <0>        -0.0623
      6 C5          3.4988   -1.9612   -2.4067 C.ar      1 <0>        -0.1111
      7 C6          3.1727   -2.7514   -1.3264 C.ar      1 <0>        -0.1041
      8 C7          2.4272   -2.2280   -0.2785 C.ar      1 <0>         0.1031
      9 O2          2.1140   -3.0108    0.7869 O.3       1 <0>        -0.4832
     10 C8          3.4185    0.2168   -3.6024 C.2       1 <0>         0.0662
     11 C9          3.8348   -0.3527   -4.7621 C.2       1 <0>        -0.2121
     12 C10         4.3760    0.2858   -5.9770 C.2       1 <0>         0.5627
     13 O3          4.5100    1.4930   -6.0555 O.2       1 <0>        -0.4793
     14 N1          4.7095   -0.5130   -6.9766 N.am      1 <0>        -0.6473
     15 C11         4.5502   -1.8775   -6.8683 C.2       1 <0>         0.3924
     16 N2          4.8279   -2.8055   -7.7564 N.2       1 <0>        -0.4583
     17 C12         4.5169   -4.1133   -7.4996 C.ar      1 <0>         0.1254
     18 C13         3.2420   -4.4546   -7.0426 C.ar      1 <0>        -0.1401
     19 C14         2.9352   -5.7747   -6.7862 C.ar      1 <0>        -0.0838
     20 C15         3.8869   -6.7604   -6.9806 C.ar      1 <0>        -0.1159
     21 C16         5.1522   -6.4302   -7.4325 C.ar      1 <0>        -0.0765
     22 C17         5.4716   -5.1140   -7.6987 C.ar      1 <0>        -0.0799
     23 Br1         7.1989   -4.6655   -8.3240 Br        1 <0>        -0.0313
     24 S1          3.8820   -2.0781   -5.2249 S.3       1 <0>        -0.0097
     25 H1          1.7300    1.6068    0.5275 H         1 <0>         0.0590
     26 H2          0.2344    1.0936   -0.2899 H         1 <0>         0.0583
     27 H3          0.2728    1.2441    1.4832 H         1 <0>         0.1053
     28 H4          1.9852    0.9243   -1.4273 H         1 <0>         0.1435
     29 H5          4.0823   -2.3698   -3.2185 H         1 <0>         0.1416
     30 H6          3.5016   -3.7795   -1.2924 H         1 <0>         0.1458
     31 H7          1.2810   -3.4921    0.6899 H         1 <0>         0.3930
     32 H8          3.3414    1.2913   -3.5257 H         1 <0>         0.1633
     33 H9          5.0693   -0.1348   -7.7941 H         1 <0>         0.4259
     34 H10         2.4981   -3.6866   -6.8901 H         1 <0>         0.1361
     35 H11         1.9498   -6.0398   -6.4325 H         1 <0>         0.1360
     36 H12         3.6410   -7.7923   -6.7781 H         1 <0>         0.1371
     37 H13         5.8902   -7.2045   -7.5817 H         1 <0>         0.1403
@<TRIPOS>BOND
     1    1    2 1
     2    1   25 1
     3    1   26 1
     4    1   27 1
     5    2    3 1
     6    3    8 ar
     7    3    4 ar
     8    4    5 ar
     9    4   28 1
    10    5    6 ar
    11    5   10 1
    12    6    7 ar
    13    6   29 1
    14    7    8 ar
    15    7   30 1
    16    8    9 1
    17    9   31 1
    18   10   11 2
    19   10   32 1
    20   11   24 1
    21   11   12 1
    22   12   13 2
    23   12   14 am
    24   14   15 1
    25   14   33 1
    26   15   16 2
    27   15   24 1
    28   16   17 1
    29   17   22 ar
    30   17   18 ar
    31   18   19 ar
    32   18   34 1
    33   19   20 ar
    34   19   35 1
    35   20   21 ar
    36   20   36 1
    37   21   22 ar
    38   21   37 1
    39   22   23 1
@<TRIPOS>MOLECULE
ZINC66230756
   41    42     0     0     0
SMALL
USER_CHARGES

@<TRIPOS>ATOM
      1 C1         -0.4031    0.9093   -0.2537 C.3       1 <0>        -0.1553
      2 C2         -0.0745   -0.5580    0.0287 C.3       1 <0>         0.0832
      3 H1         -0.9995   -1.1161    0.1735 H         1 <0>         0.1101
      4 C3          0.7697   -0.6532    1.2734 C.2       1 <0>         0.3656
      5 O1          2.1101   -0.6651    1.1770 O.3       1 <0>        -0.6158
      6 C4          0.1737   -0.7271    2.4973 C.2       1 <0>        -0.4148
      7 C5          0.9635   -0.9830    3.6641 C.1       1 <0>         0.3163
      8 N1          1.5900   -1.1861    4.5897 N.1       1 <0>        -0.5248
      9 C6         -1.2797   -0.5441    2.6193 C.2       1 <0>         0.5935
     10 O2         -1.9328   -0.2000    1.6521 O.2       1 <0>        -0.5634
     11 N2         -1.8888   -0.7575    3.8025 N.am      1 <0>        -0.6855
     12 C7         -3.2820   -0.6776    3.8962 C.ar      1 <0>         0.1720
     13 C8         -3.8758   -0.2187    5.0649 C.ar      1 <0>        -0.1606
     14 C9         -5.2518   -0.1411    5.1542 C.ar      1 <0>        -0.1017
     15 C10        -6.0382   -0.5197    4.0817 C.ar      1 <0>        -0.1529
     16 C11        -5.4502   -0.9770    2.9166 C.ar      1 <0>        -0.1019
     17 C12        -4.0746   -1.0517    2.8188 C.ar      1 <0>        -0.1247
     18 O3          0.6446   -1.1066   -1.0776 O.3       1 <0>        -0.2843
     19 C13        -0.0908   -1.5795   -2.1181 C.ar      1 <0>         0.1945
     20 C14        -1.4677   -1.4084   -2.1303 C.ar      1 <0>        -0.2154
     21 C15        -2.2128   -1.8894   -3.1892 C.ar      1 <0>        -0.0483
     22 C16        -1.5877   -2.5411   -4.2365 C.ar      1 <0>        -0.1748
     23 C17        -0.2161   -2.7132   -4.2264 C.ar      1 <0>        -0.0389
     24 C18         0.5344   -2.2288   -3.1723 C.ar      1 <0>        -0.2305
     25 C19         2.0303   -2.4113   -3.1650 C.3       1 <0>         0.5170
     26 F1          2.4232   -3.0886   -4.3244 F         1 <0>        -0.1879
     27 F2          2.6527   -1.1590   -3.1231 F         1 <0>        -0.1722
     28 F3          2.4039   -3.1555   -2.0409 F         1 <0>        -0.1694
     29 H2          0.5219    1.4674   -0.3986 H         1 <0>         0.0573
     30 H3         -1.0137    0.9781   -1.1540 H         1 <0>         0.0551
     31 H4         -0.9516    1.3278    0.5901 H         1 <0>         0.0919
     32 H5         -1.3610   -0.9664    4.5890 H         1 <0>         0.4055
     33 H6         -3.2621    0.0768    5.9030 H         1 <0>         0.1201
     34 H7         -5.7141    0.2154    6.0629 H         1 <0>         0.1188
     35 H8         -7.1140   -0.4584    4.1542 H         1 <0>         0.1156
     36 H9         -6.0673   -1.2723    2.0809 H         1 <0>         0.1197
     37 H10        -3.6159   -1.4047    1.9070 H         1 <0>         0.1385
     38 H11        -1.9564   -0.8998   -1.3124 H         1 <0>         0.1498
     39 H12        -3.2846   -1.7569   -3.1990 H         1 <0>         0.1304
     40 H13        -2.1721   -2.9165   -5.0635 H         1 <0>         0.1296
     41 H14         0.2698   -3.2228   -5.0454 H         1 <0>         0.1382
@<TRIPOS>BOND
     1    1    2 1
     2    1   29 1
     3    1   30 1
     4    1   31 1
     5    2    3 1
     6    2    4 1
     7    2   18 1
     8    4    5 1
     9    4    6 2
    10    6    7 1
    11    6    9 1
    12    7    8 3
    13    9   10 2
    14    9   11 am
    15   11   12 1
    16   11   32 1
    17   12   17 ar
    18   12   13 ar
    19   13   14 ar
    20   13   33 1
    21   14   15 ar
    22   14   34 1
    23   15   16 ar
    24   15   35 1
    25   16   17 ar
    26   16   36 1
    27   17   37 1
    28   18   19 1
    29   19   24 ar
    30   19   20 ar
    31   20   21 ar
    32   20   38 1
    33   21   22 ar
    34   21   39 1
    35   22   23 ar
    36   22   40 1
    37   23   24 ar
    38   23   41 1
    39   24   25 1
    40   25   26 1
    41   25   27 1
    42   25   28 1
@<TRIPOS>MOLECULE
ZINC01666762
   18    18     0     0     0
SMALL
USER_CHARGES
6-methylsulfonyl-1H-pyrimidine-2,4-dione
@<TRIPOS>ATOM
      1 C1         -2.9402    4.7945   -1.6369 C.3       1 <0>        -0.6408
      2 S1         -2.7534    4.1576    0.0513 S.o2      1 <0>         2.4901
      3 O1         -3.7489    3.1795    0.3183 O.2       1 <0>        -0.9010
      4 O2         -2.5297    5.2296    0.9569 O.2       1 <0>        -0.9094
      5 C2         -1.2364    3.2615    0.0319 C.2       1 <0>        -0.3661
      6 C3         -1.2463    1.9114    0.0183 C.2       1 <0>        -0.1555
      7 C4         -0.0144    1.2136    0.0087 C.2       1 <0>         0.5450
      8 O3          0.0021   -0.0041    0.0020 O.2       1 <0>        -0.4885
      9 N1          1.1403    1.9098    0.0014 N.am      1 <0>        -0.6554
     10 H1          2.0145    1.4243   -0.0096 H         1 <0>         0.4437
     11 C5          1.1210    3.2556    0.0089 C.2       1 <0>         0.7010
     12 O4          2.1701    3.8701    0.0022 O.2       1 <0>        -0.5285
     13 N2         -0.0428    3.9305    0.0241 N.am      1 <0>        -0.6071
     14 H2         -0.0354    4.9305    0.0297 H         1 <0>         0.4477
     15 H3         -2.9733    3.9608   -2.3382 H         1 <0>         0.1416
     16 H4         -3.8649    5.3670   -1.7090 H         1 <0>         0.1482
     17 H5         -2.0944    5.4386   -1.8779 H         1 <0>         0.1377
     18 H6         -2.1813    1.3709    0.0194 H         1 <0>         0.1974
@<TRIPOS>BOND
     1    1    2 1
     2    1   15 1
     3    1   16 1
     4    1   17 1
     5    2    3 2
     6    2    4 2
     7    2    5 1
     8    5   13 1
     9    5    6 2
    10    6    7 1
    11    6   18 1
    12    7    8 2
    13    7    9 am
    14    9   10 1
    15    9   11 am
    16   11   12 2
    17   11   13 am
    18   13   14 1
@<TRIPOS>MOLECULE
ZINC16137471
   14    14     0     0     0
SMALL
USER_CHARGES
(5S)-5-chlorohexahydropyrimidine-2,4-dione
@<TRIPOS>ATOM
      1 C1          2.3306    1.3383    0.8002 C.3       1 <0>         0.1044
      2 C2          1.2799    2.1123    0.0012 C.3       1 <0>        -0.0566
      3 H1          1.6227    2.2375   -1.0259 H         1 <0>         0.1486
      4 C3         -0.0162    1.3414    0.0094 C.2       1 <0>         0.5161
      5 O1         -1.0740    1.9335    0.0177 O.2       1 <0>        -0.4657
      6 N1          0.0021   -0.0041    0.0020 N.am      1 <0>        -0.6699
      7 C4          1.1603   -0.6805    0.0768 C.2       1 <0>         0.7095
      8 O2          1.1658   -1.8743   -0.1511 O.2       1 <0>        -0.5458
      9 N2          2.3122   -0.0694    0.3979 N.am      1 <0>        -0.7240
     10 Cl1         1.0230    3.7306    0.7535 Cl        1 <0>        -0.0936
     11 H2          2.1065    1.4149    1.8641 H         1 <0>         0.0923
     12 H3          3.3173    1.7587    0.6058 H         1 <0>         0.1192
     13 H4         -0.8336   -0.4929   -0.0579 H         1 <0>         0.4340
     14 H5          3.1438   -0.5676    0.3630 H         1 <0>         0.4317
@<TRIPOS>BOND
     1    1    9 1
     2    1    2 1
     3    1   11 1
     4    1   12 1
     5    2    3 1
     6    2    4 1
     7    2   10 1
     8    4    5 2
     9    4    6 am
    10    6    7 am
    11    6   13 1
    12    7    8 2
    13    7    9 am
    14    9   14 1
@<TRIPOS>MOLECULE
ZINC36819471
   19    18     0     0     0
SMALL
USER_CHARGES

@<TRIPOS>ATOM
      1 C1         -0.0187    1.5258    0.0104 C.3       1 <0>        -0.1493
      2 C2          0.0021   -0.0041    0.0020 C.3       1 <0>        -0.0180
      3 H1         -1.0205   -0.3814    0.0098 H         1 <0>         0.1222
      4 C3          0.7309   -0.5033    1.2229 C.2       1 <0>         0.5111
      5 O1          1.7801    0.0073    1.5538 O.2       1 <0>        -0.5158
      6 N1          0.2169   -1.5171    1.9471 N.am      1 <0>        -0.5177
      7 N2          0.8945   -1.9812    3.0821 N.am      1 <0>        -0.5252
      8 C4          0.3804   -2.9950    3.8062 C.2       1 <0>         0.5135
      9 O2         -0.6687   -3.5056    3.4753 O.2       1 <0>        -0.5421
     10 C5          1.1093   -3.4942    5.0271 C.3       1 <0>        -0.1643
     11 Cl1         0.8460   -0.5855   -1.4814 Cl        1 <0>        -0.1284
     12 H2          1.0039    1.9031    0.0027 H         1 <0>         0.0842
     13 H3         -0.5459    1.8868   -0.8726 H         1 <0>         0.0851
     14 H4         -0.5289    1.8773    0.9072 H         1 <0>         0.0793
     15 H5         -0.6222   -1.9254    1.6824 H         1 <0>         0.4341
     16 H6          1.7336   -1.5729    3.3467 H         1 <0>         0.4342
     17 H7          1.2115   -2.6820    5.7467 H         1 <0>         0.0962
     18 H8          0.5455   -4.3107    5.4784 H         1 <0>         0.1042
     19 H9          2.0982   -3.8512    4.7393 H         1 <0>         0.0964
@<TRIPOS>BOND
     1    1    2 1
     2    1   12 1
     3    1   13 1
     4    1   14 1
     5    2    3 1
     6    2    4 1
     7    2   11 1
     8    4    5 2
     9    4    6 am
    10    6    7 1
    11    6   15 1
    12    7    8 am
    13    7   16 1
    14    8    9 2
    15    8   10 1
    16   10   17 1
    17   10   18 1
    18   10   19 1
@<TRIPOS>MOLECULE
ZINC15080278
   16    16     0     0     0
SMALL
USER_CHARGES

@<TRIPOS>ATOM
      1 C1         -0.0187    1.5258    0.0104 C.3       1 <0>        -0.0586
      2 C2          1.3165    0.7789   -0.0063 C.3       1 <0>        -0.0318
      3 C3          0.0021   -0.0041    0.0020 C.3       1 <0>         0.1150
      4 C4         -0.3929   -0.6823   -1.2433 C.1       1 <0>         0.2243
      5 N1         -0.6978   -1.2057   -2.2043 N.1       1 <0>        -0.3542
      6 C5         -0.3692   -0.6957    1.2473 C.1       1 <0>         0.2338
      7 N2         -0.6557   -1.2294    2.2083 N.1       1 <0>        -0.3477
      8 C6          2.0894    0.7963   -1.2590 C.1       1 <0>         0.2154
      9 N3          2.6858    0.8097   -2.2258 N.1       1 <0>        -0.3567
     10 C7          2.1321    0.7830    1.2609 C.2       1 <0>         0.5649
     11 O1          1.7387    0.1804    2.2372 O.2       1 <0>        -0.5021
     12 N4          3.2986    1.4563    1.3094 N.am      1 <0>        -0.8341
     13 H1         -0.3072    2.0201    0.9381 H         1 <0>         0.1566
     14 H2         -0.3248    2.0300   -0.9061 H         1 <0>         0.1511
     15 H3          3.6132    1.9383    0.5286 H         1 <0>         0.4066
     16 H4          3.8235    1.4589    2.1251 H         1 <0>         0.4178
@<TRIPOS>BOND
     1    1    3 1
     2    1    2 1
     3    1   13 1
     4    1   14 1
     5    2    3 1
     6    2    8 1
     7    2   10 1
     8    3    4 1
     9    3    6 1
    10    4    5 3
    11    6    7 3
    12    8    9 3
    13   10   11 2
    14   10   12 am
    15   12   15 1
    16   12   16 1
@<TRIPOS>MOLECULE
ZINC58517575
   19    19     0     0     0
SMALL
USER_CHARGES

@<TRIPOS>ATOM
      1 C1          0.0182    1.3188    0.1476 C.ar      1 <0>        -0.1749
      2 C2          1.2302    1.9830    0.1404 C.ar      1 <0>         0.1116
      3 N1          2.3613    1.3208   -0.0046 N.ar      1 <0>        -0.4775
      4 C3          2.3842    0.0101   -0.1471 C.ar      1 <0>         0.1125
      5 C4          1.2116   -0.7214   -0.1492 C.ar      1 <0>        -0.1551
      6 C5          0.0024   -0.0598    0.0003 C.ar      1 <0>        -0.0823
      7 C6         -1.2982   -0.8210    0.0034 C.3       1 <0>         0.2291
      8 H1         -1.6011   -1.0188    1.0316 H         1 <0>         0.1513
      9 C7         -1.1219   -2.0964   -0.7101 C.1       1 <0>         0.2251
     10 N2         -0.9859   -3.0807   -1.2608 N.1       1 <0>        -0.4012
     11 N3         -2.3338   -0.0238   -0.6674 N.3       1 <0>        -0.4855
     12 N4         -2.0223    0.1555   -2.0763 N.3       1 <0>        -0.6652
     13 H2         -0.9046    1.8662    0.2708 H         1 <0>         0.1357
     14 H3          1.2511    3.0567    0.2545 H         1 <0>         0.1624
     15 H4          3.3302   -0.4977   -0.2638 H         1 <0>         0.1626
     16 H5          1.2369   -1.7947   -0.2663 H         1 <0>         0.1370
     17 H6         -2.4588    0.8662   -0.2087 H         1 <0>         0.3310
     18 H7         -2.7022    0.7518   -2.5239 H         1 <0>         0.3627
     19 H8         -1.0884    0.5179   -2.1969 H         1 <0>         0.3207
@<TRIPOS>BOND
     1    1    6 ar
     2    1    2 ar
     3    1   13 1
     4    2    3 ar
     5    2   14 1
     6    3    4 ar
     7    4    5 ar
     8    4   15 1
     9    5    6 ar
    10    5   16 1
    11    6    7 1
    12    7    8 1
    13    7    9 1
    14    7   11 1
    15    9   10 3
    16   11   12 1
    17   11   17 1
    18   12   18 1
    19   12   19 1
@<TRIPOS>MOLECULE
ZINC22538882
   27    27     0     0     0
SMALL
USER_CHARGES
(2R)-2-pyrrolidin-1-ylpropanehydrazide
@<TRIPOS>ATOM
      1 C1         -1.4768   -0.0268    0.3936 C.3       1 <0>        -0.1777
      2 C2          0.0021   -0.0041    0.0020 C.3       1 <0>         0.0175
      3 H1          0.1844   -0.6294   -0.8844 H         1 <0>         0.1486
      4 C3          0.8348   -0.5015    1.1553 C.2       1 <0>         0.5014
      5 O1          1.2848    0.2846    1.9618 O.2       1 <0>        -0.5160
      6 N1          1.0795   -1.8200    1.2905 N.am      1 <0>        -0.5691
      7 N2          1.8344   -2.2708    2.3359 N.3       1 <0>        -0.5790
      8 N3          0.3992    1.3703   -0.3318 N.4       1 <0>        -0.4014
      9 C4          1.8351    1.4334   -0.7064 C.3       1 <0>        -0.0069
     10 C5          1.9357    2.7583   -1.5032 C.3       1 <0>        -0.1410
     11 C6          0.6056    2.7902   -2.2904 C.3       1 <0>        -0.1416
     12 C7         -0.3467    1.8665   -1.5086 C.3       1 <0>         0.0003
     13 H2         -2.0846    0.3363   -0.4483 H         1 <0>         0.0966
     14 H3         -1.6348    0.6229    1.2670 H         1 <0>         0.0920
     15 H4         -1.7741   -1.0559    0.6436 H         1 <0>         0.1102
     16 H5          0.6714   -2.5330    0.5591 H         1 <0>         0.4300
     17 H6          1.9236   -3.3657    2.2785 H         1 <0>         0.3739
     18 H7          2.8358   -1.8183    2.2870 H         1 <0>         0.3493
     19 H8          2.4516    1.4422    0.2045 H         1 <0>         0.1364
     20 H9          2.0940    0.5550   -1.3158 H         1 <0>         0.1242
     21 H10         2.0335    3.6008   -0.8028 H         1 <0>         0.1002
     22 H11         2.8165    2.7244   -2.1613 H         1 <0>         0.1163
     23 H12         0.2272    3.8223   -2.3292 H         1 <0>         0.1085
     24 H13         0.7760    2.4235   -3.3134 H         1 <0>         0.1057
     25 H14        -0.6589    1.0147   -2.1307 H         1 <0>         0.1298
     26 H15        -1.2357    2.4203   -1.1725 H         1 <0>         0.1348
     27 H16         0.1836    1.9703    0.5646 H         1 <0>         0.4569
@<TRIPOS>BOND
     1    1    2 1
     2    1   13 1
     3    1   14 1
     4    1   15 1
     5    2    3 1
     6    2    4 1
     7    2    8 1
     8    4    5 2
     9    4    6 am
    10    6    7 1
    11    6   16 1
    12    7   17 1
    13    7   18 1
    14    8   12 1
    15    8    9 1
    16    8   27 1
    17    9   10 1
    18    9   19 1
    19    9   20 1
    20   10   11 1
    21   10   21 1
    22   10   22 1
    23   11   12 1
    24   11   23 1
    25   11   24 1
    26   12   25 1
    27   12   26 1
@<TRIPOS>MOLECULE
ZINC39054597
   22    22     0     0     0
SMALL
USER_CHARGES

@<TRIPOS>ATOM
      1 C1         -0.0178    1.4648    0.0101 C.3       1 <0>        -0.0474
      2 N1          0.0021   -0.0041    0.0020 N.4       1 <0>        -0.4830
      3 C2          0.6897   -0.4778   -1.2066 C.3       1 <0>         0.1892
      4 H1          1.7131   -0.1049   -1.2474 H         1 <0>         0.1660
      5 N2          0.6522   -1.9605   -1.3016 N.3       1 <0>        -0.5045
      6 N3          0.4112   -2.5066   -2.6129 N.3       1 <0>        -0.4411
      7 C3          0.2296   -1.5202   -3.7096 C.3       1 <0>        -0.4258
      8 H2          1.1611   -1.3555   -4.2512 H         1 <0>         0.1611
      9 S1         -0.2496   -0.0254   -2.7326 S.3       1 <0>        -0.0819
     10 S2         -1.0996   -2.0261   -4.8356 S.o2      1 <0>         2.6556
     11 O1         -0.7177   -3.1932   -5.5507 O.2       1 <0>        -0.9186
     12 O2         -2.3544   -1.9613   -4.1719 O.2       1 <0>        -0.9063
     13 N4         -1.1651   -0.8315   -5.9806 N.pl3     1 <0>        -1.2441
     14 H3          1.0047    1.8421    0.0024 H         1 <0>         0.1305
     15 H4         -0.5450    1.8259   -0.8730 H         1 <0>         0.1242
     16 H5         -0.5280    1.8163    0.9069 H         1 <0>         0.1451
     17 H6          0.4901   -0.3383    0.8195 H         1 <0>         0.4385
     18 H7          1.4746   -2.3704   -0.8847 H         1 <0>         0.3715
     19 H8          1.1126   -3.1906   -2.8542 H         1 <0>         0.3783
     20 H9         -0.5562   -0.0781   -5.9308 H         1 <0>         0.4143
     21 H10        -1.8124   -0.8851   -6.7010 H         1 <0>         0.4344
     22 H11        -0.9445   -0.3533    0.0092 H         1 <0>         0.4440
@<TRIPOS>BOND
     1    1    2 1
     2    1   14 1
     3    1   15 1
     4    1   16 1
     5    2    3 1
     6    2   17 1
     7    2   22 1
     8    3    4 1
     9    3    9 1
    10    3    5 1
    11    5    6 1
    12    5   18 1
    13    6    7 1
    14    6   19 1
    15    7    8 1
    16    7    9 1
    17    7   10 1
    18   10   11 2
    19   10   12 2
    20   10   13 1
    21   13   20 1
    22   13   21 1
@<TRIPOS>MOLECULE
ZINC42040390
   25    26     0     0     0
SMALL
USER_CHARGES

@<TRIPOS>ATOM
      1 C1         -0.0187    1.5272    0.0104 C.3       1 <0>        -0.1405
      2 C2          1.4189    2.0514   -0.0005 C.3       1 <0>        -0.0053
      3 N1          2.1304    1.5637    1.1871 N.4       1 <0>        -0.5079
      4 C3          2.2168    0.0989    1.1494 C.3       1 <0>        -0.0034
      5 C4          0.8100   -0.5004    1.2046 C.3       1 <0>        -0.1455
      6 C5          0.0021   -0.0041    0.0020 C.3       1 <0>        -0.0173
      7 C6         -1.4082   -0.5277    0.0916 C.2       1 <0>         0.2669
      8 N2         -1.8351   -1.7547   -0.3543 N.am      1 <0>        -0.6535
      9 H1         -1.2816   -2.4285   -0.7792 H         1 <0>         0.4422
     10 C7         -3.1547   -1.8627   -0.1004 C.2       1 <0>         0.6512
     11 O1         -3.8636   -2.8182   -0.3616 O.2       1 <0>        -0.5330
     12 N3         -3.5457   -0.7172    0.4963 N.am      1 <0>        -0.5405
     13 H2         -4.4427   -0.5025    0.7964 H         1 <0>         0.4631
     14 N4         -2.4142    0.1028    0.6062 N.2       1 <0>        -0.2608
     15 H3         -0.5277    1.8794    0.9076 H         1 <0>         0.1062
     16 H4         -0.5447    1.8889   -0.8730 H         1 <0>         0.1214
     17 H5          1.9269    1.6989   -0.8981 H         1 <0>         0.1346
     18 H6          1.4077    3.1413    0.0053 H         1 <0>         0.1410
     19 H7          3.0606    1.9542    1.2046 H         1 <0>         0.4354
     20 H8          2.7078   -0.2120    0.2272 H         1 <0>         0.1356
     21 H9          2.7948   -0.2526    2.0041 H         1 <0>         0.1404
     22 H10         0.8763   -1.5880    1.1746 H         1 <0>         0.1188
     23 H11         0.3181   -0.1904    2.1265 H         1 <0>         0.1005
     24 H12         0.4654   -0.3572   -0.9192 H         1 <0>         0.1197
     25 H13         1.6324    1.8489    2.0170 H         1 <0>         0.4307
@<TRIPOS>BOND
     1    1    6 1
     2    1    2 1
     3    1   15 1
     4    1   16 1
     5    2    3 1
     6    2   17 1
     7    2   18 1
     8    3    4 1
     9    3   19 1
    10    3   25 1
    11    4    5 1
    12    4   20 1
    13    4   21 1
    14    5    6 1
    15    5   22 1
    16    5   23 1
    17    6    7 1
    18    6   24 1
    19    7   14 2
    20    7    8 1
    21    8    9 1
    22    8   10 am
    23   10   11 2
    24   10   12 am
    25   12   13 1
    26   12   14 1
@<TRIPOS>MOLECULE
ZINC45821092
   22    23     0     0     0
SMALL
USER_CHARGES

@<TRIPOS>ATOM
      1 C1         -0.0158    1.3161    0.0093 C.ar      1 <0>         0.1953
      2 C2          1.1819    2.0292    0.0017 C.ar      1 <0>        -0.0707
      3 N1          2.3442    1.3786   -0.0129 N.ar      1 <0>        -0.3635
      4 C3          2.3619    0.0635   -0.0202 C.ar      1 <0>         0.0247
      5 C4          1.1609   -0.6520   -0.0130 C.ar      1 <0>         0.4153
      6 N2          0.0021   -0.0041    0.0020 N.ar      1 <0>        -0.5011
      7 N3          1.1799   -2.0365   -0.0215 N.pl3     1 <0>        -0.7961
      8 C5          1.1623    3.5085    0.0093 C.cat     1 <0>         0.5909
      9 N4          0.0398    4.2079    0.0289 N.pl3     1 <0>        -0.6427
     10 C6          0.3629    5.6433    0.0314 C.3       1 <0>         0.0647
     11 C7          1.9047    5.6639    0.0093 C.3       1 <0>         0.0584
     12 N5          2.2659    4.2376    0.0027 N.pl3     1 <0>        -0.6228
     13 H1         -0.9582    1.8434    0.0256 H         1 <0>         0.1780
     14 H2          3.3044   -0.4637   -0.0320 H         1 <0>         0.1915
     15 H3          2.0265   -2.5099   -0.0325 H         1 <0>         0.4274
     16 H4          0.3467   -2.5330   -0.0166 H         1 <0>         0.4226
     17 H5         -0.0404    6.1292   -0.8571 H         1 <0>         0.1271
     18 H6         -0.0146    6.1203    0.9359 H         1 <0>         0.1271
     19 H7          2.2693    6.1600   -0.8902 H         1 <0>         0.1275
     20 H8          2.2951    6.1512    0.9028 H         1 <0>         0.1270
     21 H9          3.1704    3.8874   -0.0075 H         1 <0>         0.4632
     22 H10        -0.8550    3.8337    0.0400 H         1 <0>         0.4562
@<TRIPOS>BOND
     1    1    6 ar
     2    1    2 ar
     3    1   13 1
     4    2    3 ar
     5    2    8 1
     6    3    4 ar
     7    4    5 ar
     8    4   14 1
     9    5    6 ar
    10    5    7 1
    11    7   15 1
    12    7   16 1
    13    8   12 1
    14    8    9 2
    15    9   10 1
    16    9   22 1
    17   10   11 1
    18   10   17 1
    19   10   18 1
    20   11   12 1
    21   11   19 1
    22   11   20 1
    23   12   21 1
@<TRIPOS>MOLECULE
ZINC62780028
   23    24     0     0     0
SMALL
USER_CHARGES

@<TRIPOS>ATOM
      1 C1         -0.0187    1.5258    0.0104 C.3       1 <0>        -0.1848
      2 C2          0.0021   -0.0041    0.0020 C.3       1 <0>         0.1529
      3 H1         -1.0205   -0.3814    0.0098 H         1 <0>         0.1742
      4 C3          0.7074   -0.4901   -1.2379 C.2       1 <0>         0.0843
      5 N1          1.9940   -0.4765   -1.4466 N.2       1 <0>        -0.2425
      6 N2          2.2463   -0.9657   -2.6095 N.2       1 <0>        -0.2439
      7 C4          1.1198   -1.3112   -3.1874 C.2       1 <0>         0.3090
      8 O1          0.1239   -1.0215   -2.3264 O.3       1 <0>        -0.1916
      9 C5          0.9711   -1.9121   -4.5302 C.2       1 <0>         0.1092
     10 C6          2.0191   -2.2237   -5.4210 C.2       1 <0>        -0.2137
     11 C7          1.4712   -2.7552   -6.5347 C.2       1 <0>         0.0777
     12 N3          0.1310   -2.7843   -6.3683 N.pl3     1 <0>        -0.4408
     13 H2         -0.5150   -3.1166   -7.0111 H         1 <0>         0.4551
     14 N4         -0.1640   -2.2567   -5.1047 N.2       1 <0>        -0.2422
     15 N5          0.7126   -0.4907    1.1921 N.4       1 <0>        -0.6295
     16 H3          1.0039    1.9031    0.0027 H         1 <0>         0.0966
     17 H4         -0.5459    1.8868   -0.8726 H         1 <0>         0.1141
     18 H5         -0.5289    1.8773    0.9072 H         1 <0>         0.1076
     19 H6          3.0727   -2.0654   -5.2439 H         1 <0>         0.1706
     20 H7          2.0100   -3.0966   -7.4061 H         1 <0>         0.1999
     21 H8          0.2403   -0.1653    2.0223 H         1 <0>         0.4506
     22 H9          0.7262   -1.4996    1.1866 H         1 <0>         0.4419
     23 H10         1.6592   -0.1415    1.1850 H         1 <0>         0.4454
@<TRIPOS>BOND
     1    1    2 1
     2    1   16 1
     3    1   17 1
     4    1   18 1
     5    2    3 1
     6    2    4 1
     7    2   15 1
     8    4    8 1
     9    4    5 2
    10    5    6 1
    11    6    7 2
    12    7    8 1
    13    7    9 1
    14    9   14 2
    15    9   10 1
    16   10   11 2
    17   10   19 1
    18   11   12 1
    19   11   20 1
    20   12   13 1
    21   12   14 1
    22   15   21 1
    23   15   22 1
    24   15   23 1
@<TRIPOS>MOLECULE
ZINC20470382
   33    34     0     0     0
SMALL
USER_CHARGES
4-[4-(aminomethyl)-2-fluoro-phenoxy]benzamide
@<TRIPOS>ATOM
      1 C1         -2.2948    5.6330    7.0202 C.ar      1 <0>        -0.0182
      2 C2         -2.7485    4.4762    6.4271 C.ar      1 <0>        -0.1394
      3 C3         -2.1970    4.0465    5.2255 C.ar      1 <0>         0.1352
      4 C4         -1.1819    4.7792    4.6209 C.ar      1 <0>        -0.2033
      5 C5         -0.7262    5.9396    5.2053 C.ar      1 <0>        -0.0460
      6 C6         -1.2783    6.3751    6.4129 C.ar      1 <0>        -0.1572
      7 C7         -0.7893    7.6160    7.0451 C.2       1 <0>         0.5627
      8 O1         -1.2711    7.9937    8.0956 O.2       1 <0>        -0.5408
      9 N1          0.1911    8.3304    6.4579 N.am      1 <0>        -0.8729
     10 O2         -2.6468    2.9059    4.6441 O.3       1 <0>        -0.2474
     11 C8         -2.0044    2.4602    3.5321 C.ar      1 <0>         0.0880
     12 C9         -2.5307    2.7184    2.2752 C.ar      1 <0>        -0.0910
     13 C10        -1.8735    2.2685    1.1461 C.ar      1 <0>        -0.0888
     14 C11        -0.6972    1.5520    1.2677 C.ar      1 <0>        -0.1381
     15 C12        -0.1689    1.2923    2.5187 C.ar      1 <0>        -0.1201
     16 C13        -0.8196    1.7447    3.6525 C.ar      1 <0>         0.0973
     17 F1         -0.3035    1.4915    4.8751 F         1 <0>        -0.1124
     18 C14         0.0137    1.0586    0.0339 C.3       1 <0>         0.0533
     19 N2         -0.4746   -0.2838   -0.3086 N.4       1 <0>        -0.6866
     20 H1         -2.7241    5.9666    7.9534 H         1 <0>         0.1523
     21 H2         -3.5341    3.9021    6.8959 H         1 <0>         0.1464
     22 H3         -0.7529    4.4398    3.6897 H         1 <0>         0.1275
     23 H4          0.0593    6.5107    4.7328 H         1 <0>         0.1343
     24 H5          0.5555    9.2552    6.9291 H         1 <0>         0.4316
     25 H6          0.6269    7.9887    5.5075 H         1 <0>         0.4153
     26 H7         -3.4516    3.2744    2.1788 H         1 <0>         0.1571
     27 H8         -2.2812    2.4736    0.1672 H         1 <0>         0.1493
     28 H9          0.7523    0.7363    2.6107 H         1 <0>         0.1532
     29 H10        -0.1841    1.7452   -0.8024 H         1 <0>         0.1418
     30 H11         1.0960    1.0171    0.2262 H         1 <0>         0.1397
     31 H12         0.0443   -0.6440   -1.2092 H         1 <0>         0.4627
     32 H13        -1.5569   -0.2423   -0.5009 H         1 <0>         0.4572
     33 H14        -0.2769   -0.9703    0.5278 H         1 <0>         0.4572
@<TRIPOS>BOND
     1    1    6 ar
     2    1    2 ar
     3    1   20 1
     4    2    3 ar
     5    2   21 1
     6    3    4 ar
     7    3   10 1
     8    4    5 ar
     9    4   22 1
    10    5    6 ar
    11    5   23 1
    12    6    7 1
    13    7    8 2
    14    7    9 am
    15    9   24 1
    16    9   25 1
    17   10   11 1
    18   11   16 ar
    19   11   12 ar
    20   12   13 ar
    21   12   26 1
    22   13   14 ar
    23   13   27 1
    24   14   15 ar
    25   14   18 1
    26   15   16 ar
    27   15   28 1
    28   16   17 1
    29   18   19 1
    30   18   29 1
    31   18   30 1
    32   19   31 1
    33   19   32 1
    34   19   33 1
@<TRIPOS>MOLECULE
ZINC38049628
   33    34     0     0     0
SMALL
USER_CHARGES

@<TRIPOS>ATOM
      1 C1         -0.0166    1.3747    0.0096 C.2       1 <0>        -0.0710
      2 C2          1.3147    1.8041   -0.0008 C.2       1 <0>        -0.1278
      3 C3          2.1059    0.7040   -0.0143 C.2       1 <0>         0.0599
      4 N1          1.3198   -0.4013   -0.0127 N.pl3     1 <0>        -0.5373
      5 H1          1.6340   -1.3190   -0.0201 H         1 <0>         0.4187
      6 C4          0.0021   -0.0041    0.0020 C.2       1 <0>        -0.0691
      7 C5         -1.1692   -0.8868    0.0085 C.2       1 <0>         0.6005
      8 O1         -2.2894   -0.4114    0.0217 O.2       1 <0>        -0.4982
      9 N2         -1.0050   -2.2245   -0.0003 N.am      1 <0>        -0.7515
     10 C6         -2.1749   -3.1062    0.0061 C.3       1 <0>         0.1318
     11 H2         -2.9773   -2.6494   -0.5732 H         1 <0>         0.1193
     12 C7         -2.6442   -3.3205    1.4466 C.3       1 <0>        -0.1321
     13 C8         -1.5179   -3.9616    2.2598 C.3       1 <0>        -0.1295
     14 C9         -1.1442   -5.3093    1.6393 C.3       1 <0>        -0.1192
     15 C10        -0.6750   -5.0950    0.1989 C.3       1 <0>        -0.1422
     16 C11        -1.8013   -4.4539   -0.6143 C.3       1 <0>         0.0187
     17 H3         -2.6718   -5.1099   -0.6095 H         1 <0>         0.1620
     18 N3         -1.3508   -4.2482   -1.9973 N.4       1 <0>        -0.6368
     19 Cl1         1.8569    3.4532    0.0024 Cl        1 <0>        -0.0274
     20 H4         -0.8939    2.0045    0.0253 H         1 <0>         0.1623
     21 H5          3.1859    0.7069   -0.0246 H         1 <0>         0.1880
     22 H6         -0.1121   -2.6034   -0.0109 H         1 <0>         0.3933
     23 H7         -2.9103   -2.3603    1.8886 H         1 <0>         0.0929
     24 H8         -3.5146   -3.9765    1.4514 H         1 <0>         0.0886
     25 H9         -0.6474   -3.3056    2.2550 H         1 <0>         0.0673
     26 H10        -1.8522   -4.1142    3.2860 H         1 <0>         0.0838
     27 H11        -0.3419   -5.7661    2.2187 H         1 <0>         0.0885
     28 H12        -2.0147   -5.9653    1.6441 H         1 <0>         0.0807
     29 H13         0.1955   -4.4390    0.1941 H         1 <0>         0.0804
     30 H14        -0.4088   -6.0552   -0.2431 H         1 <0>         0.0973
     31 H15        -0.5450   -3.6409   -2.0018 H         1 <0>         0.4282
     32 H16        -1.1044   -5.1370   -2.4065 H         1 <0>         0.4398
     33 H17        -2.0935   -3.8254   -2.5336 H         1 <0>         0.4403
@<TRIPOS>BOND
     1    1    6 2
     2    1    2 1
     3    1   20 1
     4    2    3 2
     5    2   19 1
     6    3    4 1
     7    3   21 1
     8    4    5 1
     9    4    6 1
    10    6    7 1
    11    7    8 2
    12    7    9 am
    13    9   10 1
    14    9   22 1
    15   10   11 1
    16   10   16 1
    17   10   12 1
    18   12   13 1
    19   12   23 1
    20   12   24 1
    21   13   14 1
    22   13   25 1
    23   13   26 1
    24   14   15 1
    25   14   27 1
    26   14   28 1
    27   15   16 1
    28   15   29 1
    29   15   30 1
    30   16   17 1
    31   16   18 1
    32   18   31 1
    33   18   32 1
    34   18   33 1
@<TRIPOS>MOLECULE
ZINC44255091
   35    36     0     0     0
SMALL
USER_CHARGES

@<TRIPOS>ATOM
      1 C1         -0.0166    1.3758    0.0096 C.ar      1 <0>        -0.1108
      2 C2          1.1701    2.0869    0.0021 C.ar      1 <0>        -0.0919
      3 C3          2.3816    1.4205   -0.0135 C.ar      1 <0>        -0.1067
      4 C4          2.4127    0.0392   -0.0211 C.ar      1 <0>        -0.0219
      5 C5          1.2194   -0.6819   -0.0132 C.ar      1 <0>        -0.0659
      6 C6          0.0021   -0.0041    0.0020 C.ar      1 <0>        -0.0894
      7 C7          1.2457   -2.1655   -0.0218 C.ar      1 <0>        -0.0091
      8 C8          2.0278   -2.8456   -0.9532 C.ar      1 <0>        -0.0851
      9 C9          2.0488   -4.2256   -0.9564 C.ar      1 <0>        -0.0810
     10 C10         1.2951   -4.9334   -0.0377 C.ar      1 <0>        -0.1495
     11 C11         0.5169   -4.2635    0.8891 C.ar      1 <0>        -0.1181
     12 C12         0.4928   -2.8836    0.9051 C.ar      1 <0>        -0.0906
     13 C13         1.3214   -6.4402   -0.0468 C.3       1 <0>         0.1056
     14 H1          2.2147   -6.7848   -0.5675 H         1 <0>         0.1567
     15 C14         0.0773   -6.9677   -0.7644 C.3       1 <0>        -0.1696
     16 C15         0.1633   -8.4676   -0.8819 C.2       1 <0>         0.5125
     17 O1          1.1249   -9.0567   -0.4356 O.2       1 <0>        -0.5580
     18 N1         -0.8285   -9.1544   -1.4829 N.am      1 <0>        -0.8331
     19 N2          1.3375   -6.9380    1.3352 N.4       1 <0>        -0.6352
     20 Cl1         3.9342   -0.7966   -0.0412 Cl        1 <0>        -0.0594
     21 H2         -0.9598    1.9017    0.0259 H         1 <0>         0.1374
     22 H3          1.1502    3.1667    0.0080 H         1 <0>         0.1398
     23 H4          3.3050    1.9806   -0.0200 H         1 <0>         0.1411
     24 H5         -0.9252   -0.5576    0.0082 H         1 <0>         0.1348
     25 H6          2.6161   -2.2938   -1.6714 H         1 <0>         0.1394
     26 H7          2.6547   -4.7537   -1.6778 H         1 <0>         0.1385
     27 H8         -0.0697   -4.8211    1.6042 H         1 <0>         0.1241
     28 H9         -0.1119   -2.3614    1.6318 H         1 <0>         0.1384
     29 H10        -0.8122   -6.6982   -0.1949 H         1 <0>         0.1234
     30 H11         0.0183   -6.5280   -1.7600 H         1 <0>         0.1459
     31 H12        -1.5976   -8.6832   -1.8398 H         1 <0>         0.4126
     32 H13        -0.7731  -10.1199   -1.5586 H         1 <0>         0.4168
     33 H14         2.1579   -6.5901    1.8085 H         1 <0>         0.4397
     34 H15         0.5105   -6.6190    1.8173 H         1 <0>         0.4262
     35 H16         1.3551   -7.9468    1.3291 H         1 <0>         0.4424
@<TRIPOS>BOND
     1    1    6 ar
     2    1    2 ar
     3    1   21 1
     4    2    3 ar
     5    2   22 1
     6    3    4 ar
     7    3   23 1
     8    4    5 ar
     9    4   20 1
    10    5    6 ar
    11    5    7 1
    12    6   24 1
    13    7   12 ar
    14    7    8 ar
    15    8    9 ar
    16    8   25 1
    17    9   10 ar
    18    9   26 1
    19   10   11 ar
    20   10   13 1
    21   11   12 ar
    22   11   27 1
    23   12   28 1
    24   13   14 1
    25   13   15 1
    26   13   19 1
    27   15   16 1
    28   15   29 1
    29   15   30 1
    30   16   17 2
    31   16   18 am
    32   18   31 1
    33   18   32 1
    34   19   33 1
    35   19   34 1
    36   19   35 1
@<TRIPOS>MOLECULE
ZINC50285959
   40    41     0     0     0
SMALL
USER_CHARGES

@<TRIPOS>ATOM
      1 C1          2.9075    3.0256    3.8451 C.3       1 <0>         0.0954
      2 N1          2.1940    1.8305    3.3882 N.pl3     1 <0>        -0.6333
      3 C2          0.7842    1.6207    3.7449 C.3       1 <0>         0.1205
      4 C3          0.6243    0.1592    4.1839 C.3       1 <0>        -0.1379
      5 C4          0.9490   -0.7505    2.9992 C.3       1 <0>        -0.0761
      6 C5          2.2791   -0.3791    2.3986 C.ar      1 <0>        -0.1473
      7 C6          2.8422    0.8730    2.6003 C.ar      1 <0>         0.2303
      8 C7          4.0672    1.1881    2.0231 C.ar      1 <0>        -0.1930
      9 C8          4.7244    0.2560    1.2449 C.ar      1 <0>        -0.0727
     10 C9          4.1629   -0.9909    1.0407 C.ar      1 <0>        -0.1709
     11 C10         2.9473   -1.3111    1.6227 C.ar      1 <0>        -0.0567
     12 C11         4.8809   -2.0089    0.1927 C.3       1 <0>        -0.0650
     13 C12         5.8282   -2.8279    1.0717 C.3       1 <0>        -0.1363
     14 H1          6.5029   -2.1564    1.6027 H         1 <0>         0.1147
     15 C13         6.6429   -3.7802    0.1941 C.3       1 <0>         0.0015
     16 N2          7.5206   -3.0015   -0.6898 N.4       1 <0>        -0.6357
     17 C14         5.0261   -3.6250    2.0678 C.2       1 <0>         0.5284
     18 O1          3.9561   -4.0968    1.7460 O.2       1 <0>        -0.5146
     19 N3          5.4977   -3.8137    3.3162 N.am      1 <0>        -0.8463
     20 H2          3.2230    3.6124    2.9824 H         1 <0>         0.0546
     21 H3          2.2473    3.6260    4.4710 H         1 <0>         0.0775
     22 H4          3.7832    2.7277    4.4218 H         1 <0>         0.0552
     23 H5          0.5079    2.2846    4.5640 H         1 <0>         0.0839
     24 H6          0.1512    1.8176    2.8796 H         1 <0>         0.0641
     25 H7          1.3089   -0.0524    5.0053 H         1 <0>         0.0693
     26 H8         -0.4020   -0.0147    4.5074 H         1 <0>         0.0829
     27 H9          0.9834   -1.7857    3.3388 H         1 <0>         0.0767
     28 H10         0.1709   -0.6484    2.2427 H         1 <0>         0.0750
     29 H11         4.5046    2.1624    2.1832 H         1 <0>         0.1234
     30 H12         5.6761    0.5005    0.7965 H         1 <0>         0.1154
     31 H13         2.5124   -2.2862    1.4604 H         1 <0>         0.1298
     32 H14         4.1524   -2.6726   -0.2730 H         1 <0>         0.0980
     33 H15         5.4538   -1.4980   -0.5812 H         1 <0>         0.0711
     34 H16         7.2480   -4.4295    0.8269 H         1 <0>         0.1399
     35 H17         5.9669   -4.3873   -0.4081 H         1 <0>         0.1464
     36 H18         6.9593   -2.4758   -1.3430 H         1 <0>         0.4368
     37 H19         8.0768   -2.3665   -0.1370 H         1 <0>         0.4357
     38 H20         6.3534   -3.4363    3.5735 H         1 <0>         0.4031
     39 H21         4.9814   -4.3267    3.9573 H         1 <0>         0.4134
     40 H22         8.1286   -3.6274   -1.1965 H         1 <0>         0.4424
@<TRIPOS>BOND
     1    1    2 1
     2    1   20 1
     3    1   21 1
     4    1   22 1
     5    2    7 1
     6    2    3 1
     7    3    4 1
     8    3   23 1
     9    3   24 1
    10    4    5 1
    11    4   25 1
    12    4   26 1
    13    5    6 1
    14    5   27 1
    15    5   28 1
    16    6   11 ar
    17    6    7 ar
    18    7    8 ar
    19    8    9 ar
    20    8   29 1
    21    9   10 ar
    22    9   30 1
    23   10   11 ar
    24   10   12 1
    25   11   31 1
    26   12   13 1
    27   12   32 1
    28   12   33 1
    29   13   14 1
    30   13   15 1
    31   13   17 1
    32   15   16 1
    33   15   34 1
    34   15   35 1
    35   16   36 1
    36   16   37 1
    37   16   40 1
    38   17   18 2
    39   17   19 am
    40   19   38 1
    41   19   39 1
@<TRIPOS>MOLECULE
ZINC61847624
   36    37     0     0     0
SMALL
USER_CHARGES

@<TRIPOS>ATOM
      1 C1         -0.0044    1.3676    0.2276 C.ar      1 <0>        -0.1550
      2 C2          1.1769    2.0748    0.2202 C.ar      1 <0>        -0.0319
      3 C3          2.3845    1.4122   -0.0155 C.ar      1 <0>        -0.1654
      4 C4          2.3874    0.0319   -0.2431 C.ar      1 <0>         0.0553
      5 C5          1.1997   -0.6680   -0.2338 C.ar      1 <0>        -0.2158
      6 C6          0.0020   -0.0040    0.0011 C.ar      1 <0>         0.1630
      7 O1         -1.1651   -0.6965    0.0094 O.3       1 <0>        -0.3014
      8 C7         -1.0769   -2.1178   -0.1101 C.3       1 <0>         0.0707
      9 C8         -0.9977   -2.5013   -1.5891 C.3       1 <0>        -0.1463
     10 C9         -2.2514   -2.0055   -2.3124 C.3       1 <0>        -0.1391
     11 C10        -3.4901   -2.6478   -1.6846 C.3       1 <0>         0.0256
     12 C11        -3.5693   -2.2643   -0.2056 C.3       1 <0>        -0.1418
     13 C12        -2.3156   -2.7601    0.5177 C.3       1 <0>        -0.1099
     14 N1         -4.6938   -2.1718   -2.3791 N.4       1 <0>        -0.6362
     15 Cl1         3.8836   -0.7979   -0.5372 Cl        1 <0>        -0.0133
     16 C13         3.6525    2.1662   -0.0248 C.2       1 <0>         0.5569
     17 O2          4.7022    1.5879   -0.2301 O.2       1 <0>        -0.5140
     18 N2          3.6474    3.4960    0.1942 N.am      1 <0>        -0.8496
     19 H1         -0.9373    1.8787    0.4142 H         1 <0>         0.1443
     20 H2          1.1703    3.1403    0.3960 H         1 <0>         0.1458
     21 H3          1.2002   -1.7336   -0.4096 H         1 <0>         0.1461
     22 H4         -0.1838   -2.4710    0.4053 H         1 <0>         0.0938
     23 H5         -0.1153   -2.0437   -2.0363 H         1 <0>         0.0938
     24 H6         -0.9305   -3.5854   -1.6802 H         1 <0>         0.0949
     25 H7         -2.3186   -0.9214   -2.2213 H         1 <0>         0.0943
     26 H8         -2.1950   -2.2788   -3.3661 H         1 <0>         0.0915
     27 H9         -3.4229   -3.7319   -1.7757 H         1 <0>         0.1426
     28 H10        -3.6365   -1.1802   -0.1145 H         1 <0>         0.0967
     29 H11        -4.4517   -2.7219    0.2417 H         1 <0>         0.0923
     30 H12        -2.2484   -3.8442    0.4266 H         1 <0>         0.0977
     31 H13        -2.3720   -2.4869    1.5714 H         1 <0>         0.0975
     32 H14        -4.6415   -2.4247   -3.3545 H         1 <0>         0.4366
     33 H15        -5.5106   -2.5954   -1.9651 H         1 <0>         0.4367
     34 H16         2.8100    3.9574    0.3579 H         1 <0>         0.3989
     35 H17         4.4812    3.9918    0.1881 H         1 <0>         0.4107
     36 H18        -4.7560   -1.1682   -2.2948 H         1 <0>         0.4341
@<TRIPOS>BOND
     1    1    6 ar
     2    1    2 ar
     3    1   19 1
     4    2    3 ar
     5    2   20 1
     6    3    4 ar
     7    3   16 1
     8    4    5 ar
     9    4   15 1
    10    5    6 ar
    11    5   21 1
    12    6    7 1
    13    7    8 1
    14    8   13 1
    15    8    9 1
    16    8   22 1
    17    9   10 1
    18    9   23 1
    19    9   24 1
    20   10   11 1
    21   10   25 1
    22   10   26 1
    23   11   12 1
    24   11   14 1
    25   11   27 1
    26   12   13 1
    27   12   28 1
    28   12   29 1
    29   13   30 1
    30   13   31 1
    31   14   32 1
    32   14   33 1
    33   14   36 1
    34   16   17 2
    35   16   18 am
    36   18   34 1
    37   18   35 1
@<TRIPOS>MOLECULE
ZINC03605353
   39    40     0     0     0
SMALL
USER_CHARGES
2-(5,6-dichloro-1,3-dioxo-isoindolin-2-yl)-N-(isobutylcarbamoyl)acetamide
@<TRIPOS>ATOM
      1 C1         -6.9947   -3.2971   -3.9022 C.3       1 <0>        -0.1505
      2 C2         -5.8300   -4.0673   -4.5275 C.3       1 <0>        -0.1078
      3 C3         -6.1883   -4.4565   -5.9631 C.3       1 <0>        -0.1470
      4 C4         -4.5804   -3.1846   -4.5352 C.3       1 <0>         0.1371
      5 N1         -4.1678   -2.9103   -3.1565 N.am      1 <0>        -0.7344
      6 C5         -3.0831   -2.1471   -2.9168 C.2       1 <0>         0.6935
      7 O1         -2.4472   -1.6864   -3.8445 O.2       1 <0>        -0.5256
      8 N2         -2.7036   -1.8947   -1.6485 N.am      1 <0>        -0.6874
      9 C6         -1.6189   -1.1315   -1.4089 C.2       1 <0>         0.5036
     10 O2         -0.9845   -0.6720   -2.3342 O.2       1 <0>        -0.4512
     11 C7         -1.1945   -0.8493    0.0093 C.3       1 <0>         0.0964
     12 N3          0.0021   -0.0041    0.0020 N.am      1 <0>        -0.5626
     13 C8         -0.0162    1.3410    0.0094 C.2       1 <0>         0.5856
     14 O3         -1.0119    2.0364    0.0181 O.2       1 <0>        -0.4450
     15 C9          1.3779    1.8309   -0.0013 C.ar      1 <0>        -0.1197
     16 C10         1.9615    3.0877   -0.0005 C.ar      1 <0>        -0.0222
     17 C11         3.3435    3.2042   -0.0135 C.ar      1 <0>        -0.0130
     18 C12         4.1426    2.0730   -0.0272 C.ar      1 <0>        -0.0130
     19 C13         3.5708    0.8093   -0.0277 C.ar      1 <0>        -0.0222
     20 C14         2.1913    0.6793   -0.0152 C.ar      1 <0>        -0.1197
     21 C15         1.2636   -0.4709   -0.0125 C.2       1 <0>         0.5857
     22 O4          1.5861   -1.6418   -0.0223 O.2       1 <0>        -0.4451
     23 Cl1         5.8706    2.2378   -0.0433 Cl        1 <0>        -0.0159
     24 Cl2         4.0764    4.7779   -0.0131 Cl        1 <0>        -0.0159
     25 H1         -7.8850   -3.9259   -3.8967 H         1 <0>         0.0603
     26 H2         -6.7395   -3.0198   -2.8794 H         1 <0>         0.0532
     27 H3         -7.1894   -2.3967   -4.4849 H         1 <0>         0.0591
     28 H4         -5.6353   -4.9677   -3.9448 H         1 <0>         0.0782
     29 H5         -5.3585   -5.0053   -6.4086 H         1 <0>         0.0596
     30 H6         -7.0785   -5.0854   -5.9577 H         1 <0>         0.0628
     31 H7         -6.3830   -3.5562   -6.5459 H         1 <0>         0.0599
     32 H8         -4.8021   -2.2453   -5.0418 H         1 <0>         0.0717
     33 H9         -3.7753   -3.6991   -5.0598 H         1 <0>         0.0713
     34 H10        -4.6753   -3.2779   -2.4161 H         1 <0>         0.3990
     35 H11        -3.2111   -2.2623   -0.9081 H         1 <0>         0.4123
     36 H12        -0.9727   -1.7886    0.5160 H         1 <0>         0.1391
     37 H13        -1.9996   -0.3348    0.5340 H         1 <0>         0.1390
     38 H14         1.3428    3.9728    0.0098 H         1 <0>         0.1654
     39 H15         4.1982   -0.0697   -0.0380 H         1 <0>         0.1654
@<TRIPOS>BOND
     1    1    2 1
     2    1   25 1
     3    1   26 1
     4    1   27 1
     5    2    3 1
     6    2    4 1
     7    2   28 1
     8    3   29 1
     9    3   30 1
    10    3   31 1
    11    4    5 1
    12    4   32 1
    13    4   33 1
    14    5    6 am
    15    5   34 1
    16    6    7 2
    17    6    8 am
    18    8    9 am
    19    8   35 1
    20    9   10 2
    21    9   11 1
    22   11   12 1
    23   11   36 1
    24   11   37 1
    25   12   21 am
    26   12   13 am
    27   13   14 2
    28   13   15 1
    29   15   20 ar
    30   15   16 ar
    31   16   17 ar
    32   16   38 1
    33   17   18 ar
    34   17   24 1
    35   18   19 ar
    36   18   23 1
    37   19   20 ar
    38   19   39 1
    39   20   21 1
    40   21   22 2
@<TRIPOS>MOLECULE
ZINC32059973
   53    56     0     0     0
SMALL
USER_CHARGES
N-cycloheptyl-7-cyclopropyl-1-ethyl-2,4-dioxo-pyrido[2,3-d]pyrimidine-5-carboxamide
@<TRIPOS>ATOM
      1 C1          0.0928    0.5636   -0.2729 C.3       1 <0>        -0.1676
      2 C2         -0.4199    1.2987    0.9671 C.3       1 <0>         0.1126
      3 N1          0.2905    0.8116    2.1522 N.am      1 <0>        -0.5261
      4 C3         -0.2211   -0.2598    2.8636 C.ar      1 <0>         0.4160
      5 C4          0.4828   -0.7109    3.9933 C.ar      1 <0>        -0.2221
      6 C5         -0.0137   -1.7998    4.7269 C.ar      1 <0>         0.0279
      7 C6         -1.1985   -2.3921    4.2856 C.ar      1 <0>        -0.1968
      8 C7         -1.8276   -1.8895    3.1584 C.ar      1 <0>         0.2204
      9 N2         -1.3363   -0.8652    2.4905 N.ar      1 <0>        -0.5045
     10 C8         -3.1061   -2.5307    2.6835 C.3       1 <0>        -0.2082
     11 C9         -3.4442   -3.9200    3.2280 C.3       1 <0>        -0.1153
     12 C10        -2.9868   -3.7569    1.7763 C.3       1 <0>        -0.1044
     13 C11         0.6946   -2.3027    5.9280 C.2       1 <0>         0.5580
     14 O1          1.8755   -2.5815    5.8646 O.2       1 <0>        -0.4871
     15 N3          0.0287   -2.4506    7.0904 N.am      1 <0>        -0.7304
     16 C12         0.7287   -2.9477    8.2775 C.3       1 <0>         0.1549
     17 C13         0.7640   -4.4889    8.2278 C.3       1 <0>        -0.1193
     18 C14         1.8787   -4.9697    9.1182 C.3       1 <0>        -0.1166
     19 C15         1.3896   -5.3136   10.5381 C.3       1 <0>        -0.1197
     20 C16         0.3782   -4.2888   11.0862 C.3       1 <0>        -0.1239
     21 C17         0.7660   -2.8702   10.7677 C.3       1 <0>        -0.1164
     22 C18         0.0540   -2.4480    9.4663 C.3       1 <0>        -0.1323
     23 C19         1.7243   -0.0158    4.3735 C.2       1 <0>         0.5616
     24 O2          2.3642   -0.3669    5.3458 O.2       1 <0>        -0.4576
     25 N4          2.1323    1.0235    3.6120 N.am      1 <0>        -0.6754
     26 H1          3.0552    1.5643    3.8685 H         1 <0>         0.4671
     27 C20         1.4277    1.4137    2.5382 C.2       1 <0>         0.7109
     28 O3          1.8372    2.3541    1.8855 O.2       1 <0>        -0.5324
     29 H2         -0.4406    0.9294   -1.1627 H         1 <0>         0.0799
     30 H3         -0.0831   -0.5161   -0.1579 H         1 <0>         0.0608
     31 H4          1.1708    0.7491   -0.3896 H         1 <0>         0.0613
     32 H5         -0.2440    2.3784    0.8521 H         1 <0>         0.1015
     33 H6         -1.4979    1.1133    1.0838 H         1 <0>         0.1045
     34 H7         -1.6199   -3.2324    4.8172 H         1 <0>         0.1556
     35 H8         -3.6257   -1.5627    2.6285 H         1 <0>         0.1436
     36 H9         -2.7841   -4.1518    4.0768 H         1 <0>         0.1064
     37 H10        -4.4919   -3.9376    3.5628 H         1 <0>         0.1141
     38 H11        -3.6565   -3.6398    0.9116 H         1 <0>         0.1134
     39 H12        -1.9487   -3.8539    1.4256 H         1 <0>         0.1025
     40 H13        -1.0404   -2.1981    7.1478 H         1 <0>         0.4184
     41 H14         1.7472   -2.5337    8.3140 H         1 <0>         0.0870
     42 H15        -0.1979   -4.8892    8.5807 H         1 <0>         0.0691
     43 H16         0.9409   -4.8185    7.1933 H         1 <0>         0.0668
     44 H17         2.3289   -5.8753    8.6855 H         1 <0>         0.0631
     45 H18         2.6443   -4.1845    9.2037 H         1 <0>         0.0644
     46 H19         0.8985   -6.2979   10.5284 H         1 <0>         0.0597
     47 H20         2.2480   -5.3389   11.2255 H         1 <0>         0.0608
     48 H21        -0.6110   -4.4771   10.6435 H         1 <0>         0.0615
     49 H22         0.3147   -4.3852   12.1801 H         1 <0>         0.0604
     50 H23         0.4591   -2.2119   11.5938 H         1 <0>         0.0680
     51 H24         1.8563   -2.8089   10.6357 H         1 <0>         0.0689
     52 H25         0.0246   -1.3488    9.4365 H         1 <0>         0.0675
     53 H26        -0.9727   -2.8415    9.4979 H         1 <0>         0.0675
@<TRIPOS>BOND
     1    1    2 1
     2    1   29 1
     3    1   30 1
     4    1   31 1
     5    2    3 1
     6    2   32 1
     7    2   33 1
     8    3   27 am
     9    3    4 1
    10    4    9 ar
    11    4    5 ar
    12    5    6 ar
    13    5   23 1
    14    6    7 ar
    15    6   13 1
    16    7    8 ar
    17    7   34 1
    18    8    9 ar
    19    8   10 1
    20   10   12 1
    21   10   11 1
    22   10   35 1
    23   11   12 1
    24   11   36 1
    25   11   37 1
    26   12   38 1
    27   12   39 1
    28   13   14 2
    29   13   15 am
    30   15   16 1
    31   15   40 1
    32   16   22 1
    33   16   17 1
    34   16   41 1
    35   17   18 1
    36   17   42 1
    37   17   43 1
    38   18   19 1
    39   18   44 1
    40   18   45 1
    41   19   20 1
    42   19   46 1
    43   19   47 1
    44   20   21 1
    45   20   48 1
    46   20   49 1
    47   21   22 1
    48   21   50 1
    49   21   51 1
    50   22   52 1
    51   22   53 1
    52   23   24 2
    53   23   25 am
    54   25   26 1
    55   25   27 am
    56   27   28 2
@<TRIPOS>MOLECULE
ZINC43270301
   45    47     0     0     0
SMALL
USER_CHARGES

@<TRIPOS>ATOM
      1 C1         -0.0293    1.0844   -1.1159 C.3       1 <0>         0.1004
      2 N1         -0.4291   -0.3101   -0.9113 N.am      1 <0>        -0.6330
      3 C2         -0.7393   -0.7930    0.4365 C.3       1 <0>         0.0715
      4 C3         -0.5115   -1.1487   -1.9632 C.2       1 <0>         0.7054
      5 O1         -0.2540   -0.7479   -3.0819 O.2       1 <0>        -0.5641
      6 N2         -0.8793   -2.4316   -1.7750 N.am      1 <0>        -0.6798
      7 C4         -1.0644   -3.2763   -2.8776 C.ar      1 <0>         0.1425
      8 C5         -1.3392   -2.7396   -4.1265 C.ar      1 <0>        -0.1183
      9 C6         -1.5213   -3.5746   -5.2127 C.ar      1 <0>        -0.1096
     10 C7         -1.4305   -4.9460   -5.0589 C.ar      1 <0>        -0.1224
     11 C8         -1.1566   -5.4897   -3.8182 C.ar      1 <0>        -0.0986
     12 C9         -0.9671   -4.6589   -2.7234 C.ar      1 <0>         0.1109
     13 N3         -0.6843   -5.2070   -1.4667 N.am      1 <0>        -0.6684
     14 C10         0.0418   -6.3385   -1.3730 C.2       1 <0>         0.5407
     15 O2          0.3870   -6.9256   -2.3820 O.2       1 <0>        -0.5027
     16 C11         0.4151   -6.8609   -0.0593 C.2       1 <0>        -0.2210
     17 C12         1.2515   -7.9165    0.0346 C.2       1 <0>         0.0013
     18 C13         1.9819   -8.3833   -1.1525 C.ar      1 <0>        -0.0735
     19 C14         2.6016   -7.4609   -2.0033 C.ar      1 <0>        -0.0270
     20 C15         3.2858   -7.9014   -3.1144 C.ar      1 <0>        -0.1084
     21 C16         3.3637   -9.2594   -3.3954 C.ar      1 <0>         0.0489
     22 C17         2.7480  -10.1853   -2.5516 C.ar      1 <0>         0.0176
     23 C18         2.0648   -9.7520   -1.4325 C.ar      1 <0>        -0.0754
     24 O3          2.9708  -11.4389   -3.0445 O.3       1 <0>        -0.3102
     25 C19         3.3766  -11.2467   -4.4125 C.3       1 <0>         0.2137
     26 O4          3.9702   -9.9352   -4.4131 O.3       1 <0>        -0.3089
     27 H1          1.0545    1.1673   -1.0342 H         1 <0>         0.0558
     28 H2         -0.3451    1.4113   -2.1066 H         1 <0>         0.0801
     29 H3         -0.4998    1.7120   -0.3590 H         1 <0>         0.0732
     30 H4         -0.6181    0.0211    1.1510 H         1 <0>         0.0875
     31 H5         -1.7681   -1.1521    0.4660 H         1 <0>         0.0614
     32 H6         -0.0627   -1.6074    0.6954 H         1 <0>         0.0596
     33 H7         -1.0160   -2.7702   -0.8764 H         1 <0>         0.4006
     34 H8         -1.4112   -1.6691   -4.2502 H         1 <0>         0.1545
     35 H9         -1.7356   -3.1549   -6.1845 H         1 <0>         0.1267
     36 H10        -1.5744   -5.5941   -5.9108 H         1 <0>         0.1257
     37 H11        -1.0867   -6.5611   -3.7015 H         1 <0>         0.1449
     38 H12        -1.0110   -4.7724   -0.6634 H         1 <0>         0.4025
     39 H13         0.0218   -6.4023    0.8359 H         1 <0>         0.1387
     40 H14         1.3839   -8.4179    0.9820 H         1 <0>         0.1443
     41 H15         2.5431   -6.4041   -1.7887 H         1 <0>         0.1270
     42 H16         3.7631   -7.1882   -3.7700 H         1 <0>         0.1338
     43 H17         1.5920  -10.4680   -0.7765 H         1 <0>         0.1353
     44 H18         4.1098  -11.9990   -4.7037 H         1 <0>         0.1321
     45 H19         2.5123  -11.2761   -5.0760 H         1 <0>         0.0844
@<TRIPOS>BOND
     1    1    2 1
     2    1   27 1
     3    1   28 1
     4    1   29 1
     5    2    3 1
     6    2    4 am
     7    3   30 1
     8    3   31 1
     9    3   32 1
    10    4    5 2
    11    4    6 am
    12    6    7 1
    13    6   33 1
    14    7   12 ar
    15    7    8 ar
    16    8    9 ar
    17    8   34 1
    18    9   10 ar
    19    9   35 1
    20   10   11 ar
    21   10   36 1
    22   11   12 ar
    23   11   37 1
    24   12   13 1
    25   13   14 am
    26   13   38 1
    27   14   15 2
    28   14   16 1
    29   16   17 2
    30   16   39 1
    31   17   18 1
    32   17   40 1
    33   18   23 ar
    34   18   19 ar
    35   19   20 ar
    36   19   41 1
    37   20   21 ar
    38   20   42 1
    39   21   26 1
    40   21   22 ar
    41   22   23 ar
    42   22   24 1
    43   23   43 1
    44   24   25 1
    45   25   26 1
    46   25   44 1
    47   25   45 1
@<TRIPOS>MOLECULE
ZINC45689579
   42    44     0     0     0
SMALL
USER_CHARGES

@<TRIPOS>ATOM
      1 C1         -0.2566    2.7021    0.7971 C.3       1 <0>        -0.0858
      2 C2         -0.9724    1.4203    0.4569 C.2       1 <0>         0.2554
      3 N1         -1.6241    1.1661   -0.6475 N.2       1 <0>        -0.3289
      4 N2         -2.1176   -0.0192   -0.6195 N.2       1 <0>        -0.0315
      5 N3         -1.8192   -0.5996    0.4926 N.2       1 <0>        -0.0795
      6 N4         -1.0548    0.3186    1.2339 N.pl3     1 <0>        -0.3313
      7 C3         -0.4994    0.1316    2.5083 C.ar      1 <0>         0.1462
      8 C4          0.7235    0.7088    2.8250 C.ar      1 <0>        -0.1332
      9 C5          1.2715    0.5248    4.0797 C.ar      1 <0>        -0.0749
     10 C6          0.6051   -0.2331    5.0235 C.ar      1 <0>        -0.1059
     11 C7         -0.6181   -0.8128    4.7127 C.ar      1 <0>         0.1898
     12 C8         -1.1737   -0.6249    3.4550 C.ar      1 <0>        -0.1280
     13 N5         -1.2923   -1.5811    5.6687 N.am      1 <0>        -0.6855
     14 C9         -1.1983   -1.2651    6.9755 C.2       1 <0>         0.7087
     15 O1         -0.6086   -0.2580    7.3165 O.2       1 <0>        -0.5655
     16 N6         -1.7581   -2.0654    7.9043 N.am      1 <0>        -0.7337
     17 C10        -1.6559   -1.7218    9.3248 C.3       1 <0>         0.2034
     18 H1         -0.6911   -1.2523    9.5165 H         1 <0>         0.1036
     19 C11        -2.7785   -0.7511    9.6967 C.3       1 <0>        -0.1614
     20 C12        -1.7790   -2.9738   10.1545 C.ar      1 <0>        -0.0824
     21 C13        -2.6889   -3.9522    9.7986 C.ar      1 <0>        -0.1113
     22 C14        -2.8024   -5.1007   10.5590 C.ar      1 <0>        -0.1004
     23 C15        -2.0065   -5.2718   11.6763 C.ar      1 <0>        -0.1075
     24 C16        -1.0960   -4.2933   12.0328 C.ar      1 <0>        -0.0297
     25 C17        -0.9786   -3.1464   11.2676 C.ar      1 <0>        -0.0973
     26 Cl1        -0.0961   -4.5074   13.4357 Cl        1 <0>        -0.0625
     27 H2          0.7754    2.6449    0.4510 H         1 <0>         0.1042
     28 H3         -0.7576    3.5384    0.3096 H         1 <0>         0.1092
     29 H4         -0.2700    2.8501    1.8770 H         1 <0>         0.0949
     30 H5          1.2467    1.3017    2.0895 H         1 <0>         0.1386
     31 H6          2.2230    0.9741    4.3233 H         1 <0>         0.1449
     32 H7          1.0360   -0.3752    6.0036 H         1 <0>         0.1484
     33 H8         -2.1269   -1.0709    3.2123 H         1 <0>         0.1402
     34 H9         -1.8271   -2.3410    5.3907 H         1 <0>         0.4112
     35 H10        -2.2286   -2.8688    7.6322 H         1 <0>         0.3988
     36 H11        -2.7025   -0.4955   10.7536 H         1 <0>         0.0723
     37 H12        -2.6895    0.1545    9.0966 H         1 <0>         0.0694
     38 H13        -3.7433   -1.2207    9.5049 H         1 <0>         0.0606
     39 H14        -3.3115   -3.8187    8.9262 H         1 <0>         0.1269
     40 H15        -3.5133   -5.8646   10.2806 H         1 <0>         0.1359
     41 H16        -2.0958   -6.1689   12.2708 H         1 <0>         0.1362
     42 H17        -0.2647   -2.3841   11.5430 H         1 <0>         0.1376
@<TRIPOS>BOND
     1    1    2 1
     2    1   27 1
     3    1   28 1
     4    1   29 1
     5    2    6 1
     6    2    3 2
     7    3    4 1
     8    4    5 2
     9    5    6 1
    10    6    7 1
    11    7   12 ar
    12    7    8 ar
    13    8    9 ar
    14    8   30 1
    15    9   10 ar
    16    9   31 1
    17   10   11 ar
    18   10   32 1
    19   11   12 ar
    20   11   13 1
    21   12   33 1
    22   13   14 am
    23   13   34 1
    24   14   15 2
    25   14   16 am
    26   16   17 1
    27   16   35 1
    28   17   18 1
    29   17   19 1
    30   17   20 1
    31   19   36 1
    32   19   37 1
    33   19   38 1
    34   20   25 ar
    35   20   21 ar
    36   21   22 ar
    37   21   39 1
    38   22   23 ar
    39   22   40 1
    40   23   24 ar
    41   23   41 1
    42   24   25 ar
    43   24   26 1
    44   25   42 1
@<TRIPOS>MOLECULE
ZINC65858853
   41    44     0     0     0
SMALL
USER_CHARGES

@<TRIPOS>ATOM
      1 C1          0.4505    1.3620   -1.7839 C.ar      1 <0>        -0.1583
      2 C2          1.4778    2.0679   -1.2228 C.ar      1 <0>        -0.0669
      3 C3          2.5190    1.3502   -0.6100 C.ar      1 <0>        -0.0863
      4 C4          3.6113    2.0106   -0.0100 C.ar      1 <0>         0.1381
      5 C5          4.6112    1.2681    0.5805 C.ar      1 <0>        -0.0903
      6 C6          4.5528   -0.1222    0.5894 C.ar      1 <0>        -0.1604
      7 C7          3.5076   -0.7880    0.0163 C.ar      1 <0>         0.1200
      8 C8          2.4644   -0.0652   -0.5976 C.ar      1 <0>         0.1378
      9 N1          1.4309   -0.6954   -1.1640 N.ar      1 <0>        -0.4502
     10 C9          0.4575   -0.0296   -1.7372 C.ar      1 <0>         0.1281
     11 O1          3.4730   -2.1469    0.0373 O.3       1 <0>        -0.2989
     12 C10         4.5637   -2.8138    0.6759 C.3       1 <0>         0.4077
     13 F1          5.7583   -2.4781    0.0298 F         1 <0>        -0.1971
     14 F2          4.6314   -2.4188    2.0162 F         1 <0>        -0.1978
     15 N2          3.6795    3.4059   -0.0145 N.am      1 <0>        -0.6585
     16 C11         4.8742    4.0225    0.0797 C.2       1 <0>         0.5637
     17 O2          5.8990    3.3679    0.0673 O.2       1 <0>        -0.5065
     18 C12         4.9388    5.4922    0.1978 C.ar      1 <0>        -0.1303
     19 C13         3.7618    6.2451    0.2179 C.ar      1 <0>        -0.0732
     20 C14         3.8209    7.6178    0.3283 C.ar      1 <0>        -0.1111
     21 C15         5.0491    8.2556    0.4198 C.ar      1 <0>         0.1105
     22 C16         6.2294    7.5089    0.4000 C.ar      1 <0>         0.0885
     23 C17         6.1773    6.1329    0.2956 C.ar      1 <0>        -0.0576
     24 N3          7.4617    8.1726    0.4927 N.am      1 <0>        -0.6601
     25 C18         7.4834    9.4564    0.9122 C.2       1 <0>         0.4907
     26 O3          8.5338   10.0601    0.9717 O.2       1 <0>        -0.5011
     27 C19         6.1965   10.1360    1.3056 C.3       1 <0>         0.0495
     28 O4          5.1175    9.6079    0.5303 O.3       1 <0>        -0.2964
     29 H1         -0.3676    1.8830   -2.2588 H         1 <0>         0.1441
     30 H2          1.4891    3.1475   -1.2500 H         1 <0>         0.1375
     31 H3          5.4490    1.7706    1.0409 H         1 <0>         0.1582
     32 H4          5.3478   -0.6839    1.0572 H         1 <0>         0.1451
     33 H5         -0.3607   -0.5748   -2.1841 H         1 <0>         0.1656
     34 H6          4.4120   -3.8919    0.6220 H         1 <0>         0.1857
     35 H7          2.8670    3.9310   -0.0854 H         1 <0>         0.4110
     36 H8          2.8043    5.7507    0.1464 H         1 <0>         0.1381
     37 H9          2.9097    8.1974    0.3432 H         1 <0>         0.1516
     38 H10         7.0895    5.5548    0.2853 H         1 <0>         0.1508
     39 H11         8.2855    7.7166    0.2595 H         1 <0>         0.4206
     40 H12         6.0026    9.9610    2.3638 H         1 <0>         0.1061
     41 H13         6.2823   11.2076    1.1254 H         1 <0>         0.1520
@<TRIPOS>BOND
     1    1   10 ar
     2    1    2 ar
     3    1   29 1
     4    2    3 ar
     5    2   30 1
     6    3    8 ar
     7    3    4 ar
     8    4    5 ar
     9    4   15 1
    10    5    6 ar
    11    5   31 1
    12    6    7 ar
    13    6   32 1
    14    7    8 ar
    15    7   11 1
    16    8    9 ar
    17    9   10 ar
    18   10   33 1
    19   11   12 1
    20   12   13 1
    21   12   14 1
    22   12   34 1
    23   15   16 am
    24   15   35 1
    25   16   17 2
    26   16   18 1
    27   18   23 ar
    28   18   19 ar
    29   19   20 ar
    30   19   36 1
    31   20   21 ar
    32   20   37 1
    33   21   28 1
    34   21   22 ar
    35   22   23 ar
    36   22   24 1
    37   23   38 1
    38   24   25 am
    39   24   39 1
    40   25   26 2
    41   25   27 1
    42   27   28 1
    43   27   40 1
    44   27   41 1
@<TRIPOS>MOLECULE
ZINC05253764
   43    46     0     0     0
SMALL
USER_CHARGES
6-[(4-fluorophenyl)-morpholino-methyl]benzo[1,3]dioxol-5-ol
@<TRIPOS>ATOM
      1 C1          0.1390    0.0807   -2.4956 C.ar      1 <0>        -0.0871
      2 C2          0.5756   -0.4248   -3.7054 C.ar      1 <0>        -0.1433
      3 C3          1.3388   -1.5796   -3.7376 C.ar      1 <0>         0.1359
      4 C4          1.6687   -2.2233   -2.5570 C.ar      1 <0>        -0.1438
      5 C5          1.2360   -1.7126   -1.3479 C.ar      1 <0>        -0.0429
      6 C6          0.4737   -0.5597   -1.3170 C.ar      1 <0>        -0.1524
      7 C7          0.0021   -0.0041    0.0020 C.3       1 <0>         0.1552
      8 H1          0.5384   -0.4934    0.8150 H         1 <0>         0.1566
      9 C8         -1.4763   -0.2547    0.1529 C.ar      1 <0>        -0.1570
     10 C9         -2.3846    0.7009   -0.2635 C.ar      1 <0>        -0.1033
     11 C10        -3.7438    0.4734   -0.1266 C.ar      1 <0>         0.0477
     12 C11        -4.1957   -0.7202    0.4315 C.ar      1 <0>         0.0838
     13 C12        -3.2841   -1.6764    0.8469 C.ar      1 <0>        -0.1181
     14 C13        -1.9239   -1.4457    0.7039 C.ar      1 <0>         0.1645
     15 O1         -1.0289   -2.3863    1.1080 O.3       1 <0>        -0.4800
     16 O2         -5.5604   -0.7012    0.4559 O.3       1 <0>        -0.2937
     17 C14        -5.9292    0.6801    0.2856 C.3       1 <0>         0.2110
     18 O3         -4.8265    1.2402   -0.4517 O.3       1 <0>        -0.2987
     19 C15         1.6649    1.7352   -0.2757 C.3       1 <0>        -0.0416
     20 C16         1.8757    3.2516   -0.2781 C.3       1 <0>         0.0364
     21 O4          1.4873    3.7839    0.9913 O.3       1 <0>        -0.3540
     22 C17         0.1251    3.5167    1.3352 C.3       1 <0>         0.0364
     23 C18        -0.1034    2.0030    1.3540 C.3       1 <0>        -0.0433
     24 F1          1.7609   -2.0782   -4.9202 F         1 <0>        -0.1222
     25 H2         -0.4607    0.9786   -2.4705 H         1 <0>         0.1263
     26 H3          0.3180    0.0783   -4.6257 H         1 <0>         0.1495
     27 H4          2.2637   -3.1243   -2.5809 H         1 <0>         0.1517
     28 H5          1.4932   -2.2145   -0.4269 H         1 <0>         0.1474
     29 H6         -2.0336    1.6263   -0.6958 H         1 <0>         0.1297
     30 H7         -3.6323   -2.6025    1.2799 H         1 <0>         0.1587
     31 H8         -0.7501   -2.2938    2.0293 H         1 <0>         0.4019
     32 H9         -6.0316    1.1712    1.2533 H         1 <0>         0.0992
     33 H10        -6.8534    0.7621   -0.2864 H         1 <0>         0.1464
     34 H11         2.3124    1.2789    0.4732 H         1 <0>         0.1446
     35 H12         1.9055    1.3327   -1.2596 H         1 <0>         0.1426
     36 H13         1.2682    3.7022   -1.0630 H         1 <0>         0.0802
     37 H14         2.9274    3.4732   -0.4593 H         1 <0>         0.1443
     38 H15        -0.5332    3.9750    0.5973 H         1 <0>         0.0801
     39 H16        -0.0898    3.9295    2.3209 H         1 <0>         0.1440
     40 H17        -1.1536    1.7959    1.5596 H         1 <0>         0.1407
     41 H18         0.5158    1.5510    2.1289 H         1 <0>         0.1449
     42 N1          0.2458    1.4545    0.0264 N.4       1 <0>        -0.3975
     43 H19        -0.3424    1.9030   -0.6857 H         1 <0>         0.4191
@<TRIPOS>BOND
     1    1    6 ar
     2    1    2 ar
     3    1   25 1
     4    2    3 ar
     5    2   26 1
     6    3    4 ar
     7    3   24 1
     8    4    5 ar
     9    4   27 1
    10    5    6 ar
    11    5   28 1
    12    6    7 1
    13    7    8 1
    14    7    9 1
    15    7   42 1
    16    9   14 ar
    17    9   10 ar
    18   10   11 ar
    19   10   29 1
    20   11   18 1
    21   11   12 ar
    22   12   13 ar
    23   12   16 1
    24   13   14 ar
    25   13   30 1
    26   14   15 1
    27   15   31 1
    28   16   17 1
    29   17   18 1
    30   17   32 1
    31   17   33 1
    32   19   20 1
    33   19   34 1
    34   19   35 1
    35   19   42 1
    36   20   21 1
    37   20   36 1
    38   20   37 1
    39   21   22 1
    40   22   23 1
    41   22   38 1
    42   22   39 1
    43   23   40 1
    44   23   41 1
    45   23   42 1
    46   42   43 1
@<TRIPOS>MOLECULE
ZINC24656417
   53    56     0     0     0
SMALL
USER_CHARGES
(5R,10S)-3-[(cyclopentyl-cyclopropyl-amino)methyl]-10-methyl-1,3-diazaspiro[4.5]decane-2,4-dione
@<TRIPOS>ATOM
      1 C1         -3.3191   -1.6450    4.2087 C.3       1 <0>        -0.1552
      2 C2         -4.8159   -1.6840    3.8940 C.3       1 <0>        -0.0857
      3 H1         -5.1130   -2.7128    3.6424 H         1 <0>         0.1018
      4 C3         -5.6064   -1.2061    5.1148 C.3       1 <0>        -0.1137
      5 C4         -7.1019   -1.2263    4.7921 C.3       1 <0>        -0.1304
      6 C5         -7.3846   -0.2914    3.6145 C.3       1 <0>        -0.1189
      7 C6         -6.6004   -0.7658    2.3882 C.3       1 <0>        -0.1173
      8 C7         -5.1096   -0.7721    2.7079 C.3       1 <0>         0.1219
      9 C8         -4.3159   -1.2030    1.4961 C.2       1 <0>         0.5291
     10 O1         -4.3807   -2.2656    0.9162 O.2       1 <0>        -0.4425
     11 N1         -3.5182   -0.1567    1.1973 N.am      1 <0>        -0.5971
     12 C9         -3.7064    0.8640    2.0428 C.2       1 <0>         0.7073
     13 O2         -3.1059    1.9184    1.9737 O.2       1 <0>        -0.5202
     14 N2         -4.6361    0.5914    2.9782 N.am      1 <0>        -0.7102
     15 C10        -2.5683   -0.1377    0.0821 C.3       1 <0>         0.2034
     16 N3         -1.3638   -0.8928    0.4519 N.4       1 <0>        -0.4159
     17 C11        -0.2536    0.0128    0.7762 C.3       1 <0>         0.0217
     18 C12        -0.7063    1.0790    1.8045 C.3       1 <0>        -0.1358
     19 C13         0.6286    1.5079    2.4625 C.3       1 <0>        -0.1187
     20 C14         1.4358    0.1976    2.5694 C.3       1 <0>        -0.1224
     21 C15         0.8749   -0.7530    1.4973 C.3       1 <0>        -0.1345
     22 C16        -0.9837   -1.8317   -0.6121 C.3       1 <0>        -0.1400
     23 C17        -1.4835   -1.5353   -2.0275 C.3       1 <0>        -0.1040
     24 C18        -2.0918   -2.6893   -1.2265 C.3       1 <0>        -0.1101
     25 H2         -3.1071   -2.3029    5.0644 H         1 <0>         0.0803
     26 H3         -3.0232   -0.6148    4.4560 H         1 <0>         0.0653
     27 H4         -2.7510   -1.9893    3.3319 H         1 <0>         0.0340
     28 H5         -5.4054   -1.8733    5.9659 H         1 <0>         0.0827
     29 H6         -5.3000   -0.1814    5.3719 H         1 <0>         0.0671
     30 H7         -7.4062   -2.2498    4.5279 H         1 <0>         0.0726
     31 H8         -7.6713   -0.8899    5.6711 H         1 <0>         0.0775
     32 H9         -8.4611   -0.3017    3.3884 H         1 <0>         0.0832
     33 H10        -7.0745    0.7312    3.8755 H         1 <0>         0.0663
     34 H11        -6.9214   -1.7828    2.1186 H         1 <0>         0.0949
     35 H12        -6.7913   -0.0855    1.5452 H         1 <0>         0.0779
     36 H13        -5.0538    1.1617    3.8209 H         1 <0>         0.4813
     37 H14        -3.0324   -0.5980   -0.8027 H         1 <0>         0.1628
     38 H15        -2.2930    0.9023   -0.1474 H         1 <0>         0.1660
     39 H16         0.0436    0.4268   -0.1986 H         1 <0>         0.1377
     40 H17        -1.2060    1.9062    1.2791 H         1 <0>         0.1122
     41 H18        -1.4060    0.6237    2.5208 H         1 <0>         0.0771
     42 H19         1.1298    2.2507    1.8245 H         1 <0>         0.0820
     43 H20         0.4257    1.9495    3.4493 H         1 <0>         0.0863
     44 H21         2.5005    0.4072    2.3894 H         1 <0>         0.0858
     45 H22         1.3111   -0.2289    3.5757 H         1 <0>         0.0803
     46 H23         0.4641   -1.6640    1.9570 H         1 <0>         0.0816
     47 H24         1.6537   -1.0281    0.7708 H         1 <0>         0.0981
     48 H25        -0.0084   -2.0170   -0.1383 H         1 <0>         0.1672
     49 H26        -1.8857   -0.5122   -2.0676 H         1 <0>         0.1209
     50 H27        -0.6492   -1.6294   -2.7382 H         1 <0>         0.1414
     51 H28        -1.7601   -3.7370   -1.2754 H         1 <0>         0.1417
     52 H29        -2.9966   -2.6198   -0.6048 H         1 <0>         0.1354
     53 H30        -1.5960   -1.4791    1.3532 H         1 <0>         0.4277
@<TRIPOS>BOND
     1    1    2 1
     2    1   25 1
     3    1   26 1
     4    1   27 1
     5    2    3 1
     6    2    8 1
     7    2    4 1
     8    4    5 1
     9    4   28 1
    10    4   29 1
    11    5    6 1
    12    5   30 1
    13    5   31 1
    14    6    7 1
    15    6   32 1
    16    6   33 1
    17    7    8 1
    18    7   34 1
    19    7   35 1
    20    8   14 1
    21    8    9 1
    22    9   10 2
    23    9   11 am
    24   11   12 am
    25   11   15 1
    26   12   13 2
    27   12   14 am
    28   14   36 1
    29   15   16 1
    30   15   37 1
    31   15   38 1
    32   16   17 1
    33   16   22 1
    34   16   53 1
    35   17   21 1
    36   17   18 1
    37   17   39 1
    38   18   19 1
    39   18   40 1
    40   18   41 1
    41   19   20 1
    42   19   42 1
    43   19   43 1
    44   20   21 1
    45   20   44 1
    46   20   45 1
    47   21   46 1
    48   21   47 1
    49   22   24 1
    50   22   23 1
    51   22   48 1
    52   23   24 1
    53   23   49 1
    54   23   50 1
    55   24   51 1
    56   24   52 1
@<TRIPOS>MOLECULE
ZINC40001500
   52    54     0     0     0
SMALL
USER_CHARGES

@<TRIPOS>ATOM
      1 C1         -0.0187    1.5276    0.0104 C.3       1 <0>        -0.1502
      2 C2          0.0021   -0.0041    0.0020 C.3       1 <0>        -0.0942
      3 H1          0.5115   -0.3501   -0.8935 H         1 <0>         0.0882
      4 C3         -1.4354   -0.5286    0.0213 C.3       1 <0>        -0.1121
      5 C4         -1.4272   -2.0503   -0.0364 C.3       1 <0>         0.1389
      6 C5         -0.5746   -2.6761    1.0493 C.3       1 <0>        -0.1027
      7 C6          0.7822   -2.0307    1.2705 C.3       1 <0>        -0.0558
      8 C7          0.7187   -0.5078    1.2530 C.3       1 <0>        -0.1090
      9 C8          1.2961   -2.4636    2.6610 C.3       1 <0>        -0.1488
     10 C9          1.7946   -2.5264    0.2340 C.3       1 <0>        -0.1615
     11 C10        -1.0444   -2.5344   -1.4130 C.2       1 <0>         0.5302
     12 O1         -0.0584   -2.2530   -2.0603 O.2       1 <0>        -0.4228
     13 N1         -2.0504   -3.3438   -1.8103 N.am      1 <0>        -0.6034
     14 C11        -3.0630   -3.3314   -0.9368 C.2       1 <0>         0.6986
     15 O2         -4.0882   -3.9690   -1.0816 O.2       1 <0>        -0.5246
     16 N2         -2.8167   -2.5372    0.1190 N.am      1 <0>        -0.7081
     17 C12        -2.0312   -4.1341   -3.0433 C.3       1 <0>         0.2325
     18 N3         -1.4464   -5.4537   -2.7701 N.4       1 <0>        -0.4011
     19 C13        -2.3135   -6.1886   -1.8413 C.3       1 <0>        -0.0099
     20 C14        -1.6689   -7.5312   -1.4900 C.3       1 <0>        -0.1432
     21 C15        -1.4786   -8.3504   -2.7698 C.3       1 <0>        -0.1390
     22 C16        -0.6347   -7.5429   -3.7602 C.3       1 <0>        -0.1439
     23 C17        -1.3176   -6.1999   -4.0275 C.3       1 <0>        -0.0046
     24 H2          1.0039    1.9049    0.0027 H         1 <0>         0.0641
     25 H3         -0.5459    1.8887   -0.8726 H         1 <0>         0.0575
     26 H4         -0.5289    1.8792    0.9072 H         1 <0>         0.0594
     27 H5         -1.9289   -0.2008    0.9368 H         1 <0>         0.0963
     28 H6         -1.9758   -0.1347   -0.8403 H         1 <0>         0.0785
     29 H7         -1.1373   -2.6505    1.9953 H         1 <0>         0.0953
     30 H8         -0.4246   -3.7397    0.8065 H         1 <0>         0.0662
     31 H9          1.7329   -0.1008    1.2764 H         1 <0>         0.0762
     32 H10         0.1835   -0.1569    2.1397 H         1 <0>         0.0702
     33 H11         1.3862   -3.5494    2.6932 H         1 <0>         0.0557
     34 H12         2.2712   -2.0125    2.8447 H         1 <0>         0.0654
     35 H13         0.5935   -2.1345    3.4267 H         1 <0>         0.0592
     36 H14         1.4437   -2.2734   -0.7665 H         1 <0>         0.0734
     37 H15         2.7591   -2.0508    0.4118 H         1 <0>         0.0652
     38 H16         1.9015   -3.6078    0.3189 H         1 <0>         0.0495
     39 H17        -3.4183   -2.3177    0.8448 H         1 <0>         0.4513
     40 H18        -3.0496   -4.2572   -3.4118 H         1 <0>         0.1647
     41 H19        -1.4325   -3.6199   -3.7951 H         1 <0>         0.1650
     42 H20        -2.4505   -5.6029   -0.9323 H         1 <0>         0.1195
     43 H21        -3.2821   -6.3627   -2.3098 H         1 <0>         0.1381
     44 H22        -0.7002   -7.3583   -1.0211 H         1 <0>         0.0851
     45 H23        -2.3150   -8.0761   -0.8017 H         1 <0>         0.1137
     46 H24        -0.9684   -9.2839   -2.5325 H         1 <0>         0.0962
     47 H25        -2.4512   -8.5672   -3.2117 H         1 <0>         0.0845
     48 H26         0.3555   -7.3702   -3.3385 H         1 <0>         0.0882
     49 H27        -0.5416   -8.0962   -4.6947 H         1 <0>         0.1170
     50 H28        -2.3075   -6.3737   -4.4494 H         1 <0>         0.1353
     51 H29        -0.7194   -5.6226   -4.7324 H         1 <0>         0.1355
     52 H30        -0.5344   -5.3367   -2.3546 H         1 <0>         0.4204
@<TRIPOS>BOND
     1    1    2 1
     2    1   24 1
     3    1   25 1
     4    1   26 1
     5    2    3 1
     6    2    8 1
     7    2    4 1
     8    4    5 1
     9    4   27 1
    10    4   28 1
    11    5   16 1
    12    5    6 1
    13    5   11 1
    14    6    7 1
    15    6   29 1
    16    6   30 1
    17    7    8 1
    18    7    9 1
    19    7   10 1
    20    8   31 1
    21    8   32 1
    22    9   33 1
    23    9   34 1
    24    9   35 1
    25   10   36 1
    26   10   37 1
    27   10   38 1
    28   11   12 2
    29   11   13 am
    30   13   14 am
    31   13   17 1
    32   14   15 2
    33   14   16 am
    34   16   39 1
    35   17   18 1
    36   17   40 1
    37   17   41 1
    38   18   23 1
    39   18   19 1
    40   18   52 1
    41   19   20 1
    42   19   42 1
    43   19   43 1
    44   20   21 1
    45   20   44 1
    46   20   45 1
    47   21   22 1
    48   21   46 1
    49   21   47 1
    50   22   23 1
    51   22   48 1
    52   22   49 1
    53   23   50 1
    54   23   51 1
@<TRIPOS>MOLECULE
ZINC57866718
   52    55     0     0     0
SMALL
USER_CHARGES

@<TRIPOS>ATOM
      1 C1         -0.0187    1.5258    0.0104 C.3       1 <0>        -0.1485
      2 C2          0.0021   -0.0041    0.0020 C.3       1 <0>        -0.0075
      3 C3          0.7421   -0.5109    1.2415 C.3       1 <0>        -0.1471
      4 C4         -1.4117   -0.5257    0.0127 C.2       1 <0>         0.2843
      5 N1         -2.2884   -0.2839    0.9429 N.2       1 <0>        -0.4658
      6 C5         -3.4585   -0.9048    0.6410 C.ar      1 <0>         0.0580
      7 C6         -4.7001   -0.9797    1.2786 C.ar      1 <0>        -0.0609
      8 C7         -5.7245   -1.7089    0.7088 C.ar      1 <0>         0.0568
      9 C8         -5.5265   -2.3721   -0.5030 C.ar      1 <0>         0.0883
     10 C9         -4.3008   -2.3063   -1.1406 C.ar      1 <0>        -0.1221
     11 C10        -3.2637   -1.5761   -0.5769 C.ar      1 <0>         0.0566
     12 N2         -1.9595   -1.3137   -0.9524 N.pl3     1 <0>        -0.4943
     13 C11        -1.2903   -1.7963   -2.1629 C.3       1 <0>         0.1023
     14 C12        -0.6189   -3.1403   -1.8731 C.3       1 <0>        -0.1694
     15 C13         0.0799   -3.6444   -3.1374 C.3       1 <0>         0.0339
     16 H1         -0.6374   -3.6844   -3.9571 H         1 <0>         0.1441
     17 C14         0.6431   -5.0445   -2.8843 C.3       1 <0>        -0.1396
     18 C15         1.3412   -5.5448   -4.1522 C.3       1 <0>        -0.1393
     19 C16         2.4300   -4.5449   -4.5520 C.3       1 <0>        -0.1483
     20 C17         1.8006   -3.1633   -4.7433 C.3       1 <0>        -0.0071
     21 N3          1.1732   -2.7302   -3.4889 N.4       1 <0>        -0.5084
     22 O1         -6.5339   -3.0874   -1.0764 O.3       1 <0>        -0.3045
     23 C18        -7.6336   -3.4421   -0.2315 C.3       1 <0>         0.0203
     24 C19        -8.0481   -2.1983    0.5661 C.3       1 <0>         0.0196
     25 O2         -6.9266   -1.7723    1.3471 O.3       1 <0>        -0.3016
     26 H2          1.0039    1.9031    0.0027 H         1 <0>         0.0713
     27 H3         -0.5459    1.8868   -0.8726 H         1 <0>         0.0568
     28 H4         -0.5289    1.8773    0.9072 H         1 <0>         0.0770
     29 H5          0.5123   -0.3556   -0.8948 H         1 <0>         0.0717
     30 H6          0.7568   -1.6008    1.2356 H         1 <0>         0.0538
     31 H7          1.7647   -0.1336    1.2338 H         1 <0>         0.0712
     32 H8          0.2319   -0.1594    2.1383 H         1 <0>         0.0776
     33 H9         -4.8578   -0.4677    2.2163 H         1 <0>         0.1477
     34 H10        -4.1508   -2.8229   -2.0770 H         1 <0>         0.1324
     35 H11        -2.0246   -1.9212   -2.9587 H         1 <0>         0.1053
     36 H12        -0.5365   -1.0732   -2.4742 H         1 <0>         0.0845
     37 H13         0.1153   -3.0155   -1.0773 H         1 <0>         0.0985
     38 H14        -1.3728   -3.8634   -1.5618 H         1 <0>         0.1223
     39 H15         1.3608   -5.0055   -2.0649 H         1 <0>         0.0908
     40 H16        -0.1701   -5.7224   -2.6249 H         1 <0>         0.1134
     41 H17         1.7929   -6.5179   -3.9597 H         1 <0>         0.0969
     42 H18         0.6131   -5.6327   -4.9586 H         1 <0>         0.0834
     43 H19         3.1848   -4.4955   -3.7672 H         1 <0>         0.0893
     44 H20         2.8941   -4.8657   -5.4846 H         1 <0>         0.1142
     45 H21         2.5730   -2.4489   -5.0282 H         1 <0>         0.1357
     46 H22         1.0462   -3.2137   -5.5284 H         1 <0>         0.1319
     47 H23         0.8065   -1.7971   -3.6026 H         1 <0>         0.4246
     48 H24        -8.4703   -3.7834   -0.8411 H         1 <0>         0.1289
     49 H25        -7.3304   -4.2338    0.4536 H         1 <0>         0.0825
     50 H26        -8.3421   -1.4033   -0.1192 H         1 <0>         0.0817
     51 H27        -8.8818   -2.4444    1.2238 H         1 <0>         0.1294
     52 H28         1.8616   -2.7314   -2.7513 H         1 <0>         0.4273
@<TRIPOS>BOND
     1    1    2 1
     2    1   26 1
     3    1   27 1
     4    1   28 1
     5    2    3 1
     6    2    4 1
     7    2   29 1
     8    3   30 1
     9    3   31 1
    10    3   32 1
    11    4   12 1
    12    4    5 2
    13    5    6 1
    14    6   11 ar
    15    6    7 ar
    16    7    8 ar
    17    7   33 1
    18    8   25 1
    19    8    9 ar
    20    9   10 ar
    21    9   22 1
    22   10   11 ar
    23   10   34 1
    24   11   12 1
    25   12   13 1
    26   13   14 1
    27   13   35 1
    28   13   36 1
    29   14   15 1
    30   14   37 1
    31   14   38 1
    32   15   16 1
    33   15   21 1
    34   15   17 1
    35   17   18 1
    36   17   39 1
    37   17   40 1
    38   18   19 1
    39   18   41 1
    40   18   42 1
    41   19   20 1
    42   19   43 1
    43   19   44 1
    44   20   21 1
    45   20   45 1
    46   20   46 1
    47   21   47 1
    48   21   52 1
    49   22   23 1
    50   23   24 1
    51   23   48 1
    52   23   49 1
    53   24   25 1
    54   24   50 1
    55   24   51 1
@<TRIPOS>MOLECULE
ZINC63350040
   39    42     0     0     0
SMALL
USER_CHARGES

@<TRIPOS>ATOM
      1 C1         -0.0167    1.3786    0.0096 C.ar      1 <0>        -0.1173
      2 C2          1.1698    2.0887    0.0236 C.ar      1 <0>        -0.0953
      3 C3          2.3775    1.4187    0.0081 C.ar      1 <0>        -0.1326
      4 C4          2.3994    0.0308   -0.0211 C.ar      1 <0>         0.1120
      5 C5          1.2065   -0.6794   -0.0345 C.ar      1 <0>        -0.1347
      6 C6          0.0020   -0.0038   -0.0194 C.ar      1 <0>        -0.0944
      7 N1          3.6233   -0.6519   -0.0373 N.am      1 <0>        -0.5041
      8 C7          3.7562   -1.9926    0.0456 C.2       1 <0>         0.5118
      9 O1          2.8726   -2.8168    0.1459 O.2       1 <0>        -0.4394
     10 C8          5.2500   -2.2445   -0.0140 C.3       1 <0>         0.0406
     11 H1          5.5930   -2.7290    0.9001 H         1 <0>         0.1462
     12 N2          5.8310   -0.8978   -0.1338 N.2       1 <0>        -0.5874
     13 C9          4.8530   -0.0497   -0.1457 C.2       1 <0>         0.5692
     14 O2          5.0240    1.2863   -0.2495 O.3       1 <0>        -0.4331
     15 C10         5.6027   -3.0953   -1.2358 C.3       1 <0>        -0.0687
     16 C11         7.0710   -3.4336   -1.2054 C.2       1 <0>         0.0847
     17 C12         7.6358   -4.5603   -0.7148 C.ar      1 <0>        -0.1721
     18 C13         7.0740   -5.7616   -0.0856 C.ar      1 <0>        -0.0126
     19 C14         7.9114   -6.7461    0.3127 C.ar      1 <0>        -0.1516
     20 C15         9.2990   -6.6480    0.1405 C.ar      1 <0>         0.0531
     21 C16         9.8892   -5.5759   -0.4290 C.ar      1 <0>        -0.2097
     22 C17         9.1042   -4.4814   -0.8855 C.ar      1 <0>         0.3276
     23 N3          9.4343   -3.3499   -1.4594 N.pl3     1 <0>        -0.5844
     24 C18         8.2105   -2.5848   -1.7233 C.3       1 <0>         0.0633
     25 H2         -0.9598    1.9046    0.0260 H         1 <0>         0.1331
     26 H3          1.1521    3.1683    0.0462 H         1 <0>         0.1358
     27 H4          3.3038    1.9738    0.0183 H         1 <0>         0.1497
     28 H5          1.2204   -1.7591   -0.0575 H         1 <0>         0.1493
     29 H6         -0.9263   -0.5557   -0.0299 H         1 <0>         0.1359
     30 H7          5.9488    1.5603   -0.3183 H         1 <0>         0.4325
     31 H8          5.0176   -4.0147   -1.2194 H         1 <0>         0.1278
     32 H9          5.3772   -2.5372   -2.1445 H         1 <0>         0.1168
     33 H10         6.0079   -5.8577    0.0574 H         1 <0>         0.1615
     34 H11         7.5002   -7.6309    0.7758 H         1 <0>         0.1576
     35 H12         9.9215   -7.4636    0.4777 H         1 <0>         0.1602
     36 H13        10.9633   -5.5490   -0.5382 H         1 <0>         0.1599
     37 H14         8.0953   -2.4138   -2.7936 H         1 <0>         0.1719
     38 H15         8.2425   -1.6338   -1.1916 H         1 <0>         0.1818
     39 H16        10.3364   -3.0674   -1.6768 H         1 <0>         0.4551
@<TRIPOS>BOND
     1    1    6 ar
     2    1    2 ar
     3    1   25 1
     4    2    3 ar
     5    2   26 1
     6    3    4 ar
     7    3   27 1
     8    4    5 ar
     9    4    7 1
    10    5    6 ar
    11    5   28 1
    12    6   29 1
    13    7   13 1
    14    7    8 am
    15    8    9 2
    16    8   10 1
    17   10   11 1
    18   10   12 1
    19   10   15 1
    20   12   13 2
    21   13   14 1
    22   14   30 1
    23   15   16 1
    24   15   31 1
    25   15   32 1
    26   16   24 1
    27   16   17 2
    28   17   22 ar
    29   17   18 ar
    30   18   19 ar
    31   18   33 1
    32   19   20 ar
    33   19   34 1
    34   20   21 ar
    35   20   35 1
    36   21   22 ar
    37   21   36 1
    38   22   23 2
    39   23   24 1
    40   23   39 1
    41   24   37 1
    42   24   38 1
@<TRIPOS>MOLECULE
ZINC00723908
   47    50     0     0     0
SMALL
USER_CHARGES
7-[(2-chlorophenyl)-(1-piperidyl)methyl]quinolin-8-ol
@<TRIPOS>ATOM
      1 C1          3.9185    3.8500   -3.4472 C.ar      1 <0>        -0.0981
      2 C2          3.4691    5.0397   -3.9896 C.ar      1 <0>        -0.0803
      3 C3          2.6811    5.8889   -3.2360 C.ar      1 <0>        -0.0971
      4 C4          2.3420    5.5483   -1.9385 C.ar      1 <0>        -0.0105
      5 C5          2.7920    4.3578   -1.3964 C.ar      1 <0>        -0.1235
      6 C6          3.5845    3.5117   -2.1493 C.ar      1 <0>        -0.1001
      7 C7          2.4236    3.9864    0.0169 C.3       1 <0>         0.1396
      8 H1          2.3457    4.8900    0.6215 H         1 <0>         0.1540
      9 C8          1.1002    3.2656    0.0181 C.ar      1 <0>        -0.1292
     10 C9         -0.0389    3.9243    0.4735 C.ar      1 <0>        -0.0949
     11 C10        -1.2495    3.3009    0.4878 C.ar      1 <0>        -0.0705
     12 C11        -1.3543    1.9729    0.0428 C.ar      1 <0>        -0.0825
     13 C12        -2.5873    1.2936    0.0487 C.ar      1 <0>        -0.0551
     14 C13        -2.6141    0.0032   -0.3980 C.ar      1 <0>        -0.1534
     15 C14        -1.4408   -0.6030   -0.8424 C.ar      1 <0>         0.1481
     16 N1         -0.2969    0.0373   -0.8576 N.ar      1 <0>        -0.4652
     17 C15        -0.2012    1.2987   -0.4281 C.ar      1 <0>         0.1059
     18 C16         1.0362    1.9763   -0.4279 C.ar      1 <0>         0.1420
     19 O1          2.1581    1.3497   -0.8686 O.3       1 <0>        -0.4742
     20 C17         3.0854    2.6455    1.9207 C.3       1 <0>        -0.0108
     21 C18         4.1124    1.6235    2.4135 C.3       1 <0>        -0.1459
     22 C19         5.4980    2.2744    2.4457 C.3       1 <0>        -0.1380
     23 C20         5.8429    2.7917    1.0464 C.3       1 <0>        -0.1453
     24 C21         4.7657    3.7798    0.5933 C.3       1 <0>        -0.0100
     25 Cl1         1.3518    6.6142   -0.9914 Cl        1 <0>        -0.0475
     26 H2          4.5346    3.1868   -4.0364 H         1 <0>         0.1431
     27 H3          3.7335    5.3053   -5.0025 H         1 <0>         0.1464
     28 H4          2.3298    6.8180   -3.6599 H         1 <0>         0.1480
     29 H5          3.9396    2.5843   -1.7247 H         1 <0>         0.1284
     30 H6          0.0388    4.9441    0.8206 H         1 <0>         0.1417
     31 H7         -2.1246    3.8240    0.8440 H         1 <0>         0.1483
     32 H8         -3.4869    1.7791    0.3970 H         1 <0>         0.1516
     33 H9         -3.5435   -0.5468   -0.4065 H         1 <0>         0.1510
     34 H10        -1.4766   -1.6239   -1.1929 H         1 <0>         0.1713
     35 H11         2.5984    0.8124   -0.1959 H         1 <0>         0.3858
     36 H12         3.0608    3.4942    2.6043 H         1 <0>         0.1361
     37 H13         2.1001    2.1810    1.8830 H         1 <0>         0.1231
     38 H14         4.1277    0.7683    1.7379 H         1 <0>         0.0846
     39 H15         3.8431    1.2913    3.4161 H         1 <0>         0.1156
     40 H16         6.2395    1.5376    2.7547 H         1 <0>         0.0964
     41 H17         5.4936    3.1058    3.1505 H         1 <0>         0.0844
     42 H18         5.8854    1.9548    0.3493 H         1 <0>         0.0866
     43 H19         6.8099    3.2941    1.0722 H         1 <0>         0.1153
     44 H20         5.0008    4.1392   -0.4086 H         1 <0>         0.1307
     45 H21         4.7333    4.6231    1.2832 H         1 <0>         0.1327
     46 N2          3.4609    3.0854    0.5602 N.4       1 <0>        -0.3953
     47 H22         3.5377    2.2610   -0.0470 H         1 <0>         0.4168
@<TRIPOS>BOND
     1    1    6 ar
     2    1    2 ar
     3    1   26 1
     4    2    3 ar
     5    2   27 1
     6    3    4 ar
     7    3   28 1
     8    4    5 ar
     9    4   25 1
    10    5    6 ar
    11    5    7 1
    12    6   29 1
    13    7    8 1
    14    7    9 1
    15    7   46 1
    16    9   18 ar
    17    9   10 ar
    18   10   11 ar
    19   10   30 1
    20   11   12 ar
    21   11   31 1
    22   12   17 ar
    23   12   13 ar
    24   13   14 ar
    25   13   32 1
    26   14   15 ar
    27   14   33 1
    28   15   16 ar
    29   15   34 1
    30   16   17 ar
    31   17   18 ar
    32   18   19 1
    33   19   35 1
    34   20   21 1
    35   20   36 1
    36   20   37 1
    37   20   46 1
    38   21   22 1
    39   21   38 1
    40   21   39 1
    41   22   23 1
    42   22   40 1
    43   22   41 1
    44   23   24 1
    45   23   42 1
    46   23   43 1
    47   24   44 1
    48   24   45 1
    49   24   46 1
    50   46   47 1
@<TRIPOS>MOLECULE
ZINC07002129
   46    49     0     0     0
SMALL
USER_CHARGES
2-(azepan-1-ylmethyl)-5-(2-chlorophenyl)-3H-thieno[3,2-e]pyrimidin-4-one
@<TRIPOS>ATOM
      1 C1          1.1722    1.7832    0.0004 C.ar      1 <0>        -0.1140
      2 C2          1.1557    3.1666    0.0071 C.ar      1 <0>        -0.0940
      3 C3         -0.0469    3.8495    0.0213 C.ar      1 <0>        -0.1095
      4 C4         -1.2395    3.1526    0.0294 C.ar      1 <0>         0.0059
      5 C5         -1.2286    1.7577    0.0174 C.ar      1 <0>        -0.0410
      6 C6         -0.0126    1.0758    0.0080 C.ar      1 <0>        -0.0894
      7 C7         -2.5047    1.0034    0.0199 C.2       1 <0>        -0.0248
      8 C8         -2.8404    0.2183    1.0718 C.2       1 <0>        -0.1510
      9 S1         -4.4246   -0.4488    0.5998 S.3       1 <0>         0.1970
     10 C9         -4.5931    0.3264   -0.9872 C.2       1 <0>         0.0650
     11 C10        -3.4195    1.0877   -1.1123 C.2       1 <0>        -0.1917
     12 C11        -3.2909    1.8337   -2.3272 C.2       1 <0>         0.5541
     13 O1         -2.3071    2.5250   -2.5277 O.2       1 <0>        -0.4730
     14 N1         -4.2727    1.7601   -3.2448 N.am      1 <0>        -0.6235
     15 H1         -4.1912    2.2637   -4.0698 H         1 <0>         0.4269
     16 C12        -5.3753    0.9953   -3.0383 C.2       1 <0>         0.3582
     17 N2         -5.5214    0.3038   -1.9400 N.2       1 <0>        -0.4923
     18 C13        -6.4493    0.9437   -4.0943 C.3       1 <0>         0.0592
     19 C14        -7.0394   -1.3217   -3.4412 C.3       1 <0>        -0.0093
     20 C15        -8.1514   -2.3168   -3.2496 C.3       1 <0>        -0.1381
     21 C16        -8.4912   -2.9410   -4.6193 C.3       1 <0>        -0.1337
     22 C17        -9.3146   -2.0580   -5.4380 C.3       1 <0>        -0.1320
     23 C18        -8.6053   -0.7235   -5.7502 C.3       1 <0>        -0.1402
     24 C19        -8.7080    0.1658   -4.5411 C.3       1 <0>         0.0009
     25 Cl1        -2.7485    4.0107    0.0467 Cl        1 <0>        -0.0705
     26 H2          2.1145    1.2557   -0.0110 H         1 <0>         0.1348
     27 H3          2.0858    3.7156    0.0008 H         1 <0>         0.1366
     28 H4         -0.0536    4.9294    0.0264 H         1 <0>         0.1364
     29 H5          0.0021   -0.0041    0.0020 H         1 <0>         0.1324
     30 H6         -2.2828    0.0407    1.9795 H         1 <0>         0.2086
     31 H7         -6.8441    1.9460   -4.2602 H         1 <0>         0.1630
     32 H8         -6.0271    0.5611   -5.0235 H         1 <0>         0.1659
     33 H9         -6.4489   -1.6172   -4.3084 H         1 <0>         0.1225
     34 H10        -6.3980   -1.3374   -2.5601 H         1 <0>         0.1481
     35 H11        -9.0302   -1.8113   -2.8494 H         1 <0>         0.0858
     36 H12        -7.8292   -3.0978   -2.5610 H         1 <0>         0.1095
     37 H13        -9.0274   -3.8763   -4.4585 H         1 <0>         0.0843
     38 H14        -7.5631   -3.1525   -5.1503 H         1 <0>         0.0718
     39 H15       -10.2441   -1.8491   -4.9084 H         1 <0>         0.0747
     40 H16        -9.5477   -2.5625   -6.3757 H         1 <0>         0.0843
     41 H17        -9.0881   -0.2424   -6.6008 H         1 <0>         0.1121
     42 H18        -7.5561   -0.9082   -5.9809 H         1 <0>         0.0846
     43 H19        -9.6022   -0.1057   -3.9800 H         1 <0>         0.1314
     44 H20        -8.8030    1.1994   -4.8740 H         1 <0>         0.1274
     45 N3         -7.5387    0.0867   -3.6005 N.4       1 <0>        -0.3926
     46 H21        -7.8394    0.4296   -2.6806 H         1 <0>         0.4390
@<TRIPOS>BOND
     1    1    6 ar
     2    1    2 ar
     3    1   26 1
     4    2    3 ar
     5    2   27 1
     6    3    4 ar
     7    3   28 1
     8    4    5 ar
     9    4   25 1
    10    5    6 ar
    11    5    7 1
    12    6   29 1
    13    7   11 1
    14    7    8 2
    15    8    9 1
    16    8   30 1
    17    9   10 1
    18   10   17 1
    19   10   11 2
    20   11   12 1
    21   12   13 2
    22   12   14 am
    23   14   15 1
    24   14   16 1
    25   16   17 2
    26   16   18 1
    27   18   31 1
    28   18   32 1
    29   18   45 1
    30   19   20 1
    31   19   33 1
    32   19   34 1
    33   19   45 1
    34   20   21 1
    35   20   35 1
    36   20   36 1
    37   21   22 1
    38   21   37 1
    39   21   38 1
    40   22   23 1
    41   22   39 1
    42   22   40 1
    43   23   24 1
    44   23   41 1
    45   23   42 1
    46   24   43 1
    47   24   44 1
    48   24   45 1
    49   45   46 1
@<TRIPOS>MOLECULE
ZINC35616218
   41    44     0     0     0
SMALL
USER_CHARGES

@<TRIPOS>ATOM
      1 C1         -3.1536    0.4311    1.0719 C.3       1 <0>        -0.1359
      2 C2         -2.3297   -0.7985    0.7888 C.2       1 <0>         0.0281
      3 C3         -2.6466   -1.6233   -0.3050 C.2       1 <0>        -0.1115
      4 C4         -1.9129   -2.7246   -0.5628 C.2       1 <0>         0.0945
      5 N1         -0.8508   -3.0566    0.2344 N.pl3     1 <0>        -0.3405
      6 C5         -0.5166   -2.2688    1.3118 C.cat     1 <0>         0.3318
      7 C6         -1.2742   -1.1107    1.5870 C.2       1 <0>        -0.1377
      8 N2          0.5352   -2.8000    1.9138 N.pl3     1 <0>        -0.4940
      9 C7          0.9033   -3.9183    1.2606 C.2       1 <0>         0.1881
     10 C8          0.0385   -4.0952    0.1972 C.2       1 <0>         0.2516
     11 N3          0.0670   -5.1327   -0.7343 N.pl3     1 <0>        -0.6483
     12 C9          0.5693   -4.9056   -2.0171 C.ar      1 <0>         0.1897
     13 C10         1.1601   -3.6864   -2.3279 C.ar      1 <0>        -0.1725
     14 C11         1.6564   -3.4647   -3.5971 C.ar      1 <0>        -0.0601
     15 C12         1.5660   -4.4538   -4.5596 C.ar      1 <0>        -0.1353
     16 C13         0.9785   -5.6692   -4.2542 C.ar      1 <0>         0.0090
     17 C14         0.4848   -5.8996   -2.9839 C.ar      1 <0>        -0.1546
     18 Cl1         0.8669   -6.9073   -5.4659 Cl        1 <0>        -0.0458
     19 C15         2.0324   -4.7999    1.6170 C.2       1 <0>        -0.0232
     20 C16         2.3374   -5.2408    2.8676 C.2       1 <0>        -0.1245
     21 C17         3.4847   -6.0512    2.7438 C.2       1 <0>        -0.2166
     22 C18         3.8195   -6.0650    1.4395 C.2       1 <0>         0.0509
     23 O1          2.9363   -5.3124    0.7601 O.3       1 <0>        -0.1492
     24 C19         4.9866   -6.8062    0.8399 C.3       1 <0>        -0.0888
     25 H1         -2.7320    1.2821    0.5369 H         1 <0>         0.1028
     26 H2         -4.1789    0.2656    0.7410 H         1 <0>         0.0937
     27 H3         -3.1458    0.6351    2.1427 H         1 <0>         0.0914
     28 H4         -3.4825   -1.3735   -0.9417 H         1 <0>         0.1841
     29 H5         -2.1655   -3.3507   -1.4057 H         1 <0>         0.1960
     30 H6         -1.0206   -0.4803    2.4265 H         1 <0>         0.1826
     31 H7         -0.2621   -6.0121   -0.4910 H         1 <0>         0.4313
     32 H8          1.2306   -2.9130   -1.5774 H         1 <0>         0.1142
     33 H9          2.1155   -2.5175   -3.8388 H         1 <0>         0.1397
     34 H10         1.9545   -4.2773   -5.5517 H         1 <0>         0.1420
     35 H11         0.0304   -6.8496   -2.7444 H         1 <0>         0.1416
     36 H12         1.8040   -5.0139    3.7789 H         1 <0>         0.1606
     37 H13         3.9981   -6.5638    3.5439 H         1 <0>         0.1663
     38 H14         4.6706   -7.8085    0.5507 H         1 <0>         0.0955
     39 H15         5.3445   -6.2703   -0.0392 H         1 <0>         0.0858
     40 H16         5.7888   -6.8759    1.5745 H         1 <0>         0.1026
     41 H17         0.9725   -2.4401    2.7013 H         1 <0>         0.4645
@<TRIPOS>BOND
     1    1    2 1
     2    1   25 1
     3    1   26 1
     4    1   27 1
     5    2    7 2
     6    2    3 1
     7    3    4 2
     8    3   28 1
     9    4    5 1
    10    4   29 1
    11    5   10 1
    12    5    6 1
    13    6    7 1
    14    6    8 2
    15    7   30 1
    16    8    9 1
    17    8   41 1
    18    9   10 2
    19    9   19 1
    20   10   11 1
    21   11   12 1
    22   11   31 1
    23   12   17 ar
    24   12   13 ar
    25   13   14 ar
    26   13   32 1
    27   14   15 ar
    28   14   33 1
    29   15   16 ar
    30   15   34 1
    31   16   17 ar
    32   16   18 1
    33   17   35 1
    34   19   23 1
    35   19   20 2
    36   20   21 1
    37   20   36 1
    38   21   22 2
    39   21   37 1
    40   22   23 1
    41   22   24 1
    42   24   38 1
    43   24   39 1
    44   24   40 1
@<TRIPOS>MOLECULE
ZINC39984761
   37    40     0     0     0
SMALL
USER_CHARGES

@<TRIPOS>ATOM
      1 C1         -0.0553    1.3451   -0.1561 C.ar      1 <0>        -0.1382
      2 C2          1.1156    2.1008   -0.2659 C.ar      1 <0>         0.0295
      3 C3          2.3382    1.5206   -0.3246 C.ar      1 <0>        -0.1961
      4 C4          2.4509    0.1049   -0.2738 C.ar      1 <0>         0.2973
      5 N1          3.5011   -0.6868   -0.3125 N.pl3     1 <0>        -0.5898
      6 C5          3.0609   -2.0825   -0.2255 C.3       1 <0>         0.0808
      7 C6          1.5520   -2.0399   -0.1250 C.2       1 <0>         0.0783
      8 C7          1.2128   -0.6859   -0.1575 C.ar      1 <0>        -0.1452
      9 C8         -0.0247   -0.0110   -0.1022 C.ar      1 <0>        -0.0306
     10 C9          0.6825   -3.1252   -0.0212 C.2       1 <0>        -0.0138
     11 C10         1.1688   -4.4140   -0.1368 C.2       1 <0>        -0.1142
     12 C11         2.5734   -4.8913   -0.1682 C.2       1 <0>         0.5472
     13 O1          3.5107   -4.1209   -0.0873 O.2       1 <0>        -0.4779
     14 N2          2.7561   -6.1956   -0.2881 N.am      1 <0>        -0.6339
     15 C12         1.6804   -7.0517   -0.3783 C.2       1 <0>         0.3706
     16 N3          1.6870   -8.3587   -0.5002 N.2       1 <0>        -0.4038
     17 C13         0.5066   -9.0442   -0.5755 C.ar      1 <0>         0.0973
     18 C14        -0.5405   -8.7366    0.2971 C.ar      1 <0>        -0.1352
     19 C15        -1.7297   -9.4327    0.2156 C.ar      1 <0>        -0.0046
     20 C16        -1.8862  -10.4343   -0.7279 C.ar      1 <0>        -0.0878
     21 C17        -0.8523  -10.7446   -1.5955 C.ar      1 <0>        -0.0097
     22 C18         0.3398  -10.0518   -1.5293 C.ar      1 <0>        -0.0713
     23 Cl1        -1.0585  -12.0027   -2.7738 Cl        1 <0>        -0.0279
     24 Cl2        -3.0319   -9.0522    1.2987 Cl        1 <0>        -0.0334
     25 S1          0.2751   -5.9548   -0.2808 S.3       1 <0>         0.0703
     26 H1         -1.0074    1.8528   -0.1084 H         1 <0>         0.1544
     27 H2          1.0434    3.1776   -0.3055 H         1 <0>         0.1582
     28 H3          3.2244    2.1319   -0.4101 H         1 <0>         0.1578
     29 H4          3.3622   -2.6274   -1.1202 H         1 <0>         0.1819
     30 H5          3.4829   -2.5544    0.6618 H         1 <0>         0.1960
     31 H6         -0.9442   -0.5710   -0.0176 H         1 <0>         0.1557
     32 H7         -0.3709   -2.9588    0.1494 H         1 <0>         0.1871
     33 H8          3.6573   -6.5534   -0.3131 H         1 <0>         0.4395
     34 H9         -0.4196   -7.9563    1.0338 H         1 <0>         0.1473
     35 H10        -2.8186  -10.9761   -0.7872 H         1 <0>         0.1577
     36 H11         1.1436  -10.2914   -2.2096 H         1 <0>         0.1559
     37 H12         4.4225   -0.3930   -0.3873 H         1 <0>         0.4505
@<TRIPOS>BOND
     1    1    9 ar
     2    1    2 ar
     3    1   26 1
     4    2    3 ar
     5    2   27 1
     6    3    4 ar
     7    3   28 1
     8    4    8 ar
     9    4    5 2
    10    5    6 1
    11    5   37 1
    12    6    7 1
    13    6   29 1
    14    6   30 1
    15    7    8 2
    16    7   10 1
    17    8    9 ar
    18    9   31 1
    19   10   11 2
    20   10   32 1
    21   11   25 1
    22   11   12 1
    23   12   13 2
    24   12   14 am
    25   14   15 1
    26   14   33 1
    27   15   16 2
    28   15   25 1
    29   16   17 1
    30   17   22 ar
    31   17   18 ar
    32   18   19 ar
    33   18   34 1
    34   19   20 ar
    35   19   24 1
    36   20   21 ar
    37   20   35 1
    38   21   22 ar
    39   21   23 1
    40   22   36 1
@<TRIPOS>MOLECULE
ZINC62529072
   62    64     0     0     0
SMALL
USER_CHARGES

@<TRIPOS>ATOM
      1 C1         -0.0178    1.4608    0.0101 C.3       1 <0>         0.0725
      2 N1          0.0021   -0.0041    0.0020 N.am      1 <0>        -0.6210
      3 C2          0.0241   -0.7433    1.2666 C.3       1 <0>         0.1550
      4 C3         -1.2223   -0.3950    2.0828 C.3       1 <0>        -0.1276
      5 C4         -1.1993   -1.1671    3.4035 C.3       1 <0>        -0.1181
      6 C5          0.0524   -0.7848    4.1959 C.3       1 <0>        -0.1237
      7 C6          1.2989   -1.1331    3.3798 C.3       1 <0>        -0.1184
      8 C7          1.2758   -0.3610    2.0591 C.3       1 <0>        -0.1257
      9 C8          0.0001   -0.6716   -1.1688 C.2       1 <0>         0.7080
     10 O1          0.0166   -1.8873   -1.1755 O.2       1 <0>        -0.5839
     11 N2         -0.0202    0.0085   -2.3322 N.am      1 <0>        -0.7453
     12 C9         -0.0224   -0.7171   -3.6049 C.3       1 <0>         0.1550
     13 C10         1.4172   -1.0518   -4.0061 C.3       1 <0>        -0.1610
     14 C11         1.4133   -1.7387   -5.3734 C.3       1 <0>        -0.0024
     15 N3          0.8209   -0.8424   -6.3735 N.4       1 <0>        -0.3853
     16 C12        -0.5817   -0.5746   -6.0337 C.3       1 <0>        -0.0060
     17 C13        -0.6546    0.1571   -4.6918 C.3       1 <0>        -0.1553
     18 C14         0.8902   -1.4747   -7.6977 C.3       1 <0>        -0.0080
     19 C15         0.3879   -0.4931   -8.7584 C.3       1 <0>        -0.1140
     20 C16         1.3348    0.7064   -8.8326 C.3       1 <0>        -0.1281
     21 C17         0.8325    1.6879   -9.8933 C.3       1 <0>        -0.1199
     22 C18         0.7869    0.9893  -11.2537 C.3       1 <0>        -0.1268
     23 C19        -0.1600   -0.2102  -11.1796 C.3       1 <0>        -0.1222
     24 C20         0.3423   -1.1917  -10.1189 C.3       1 <0>        -0.1116
     25 H1          1.0048    1.8381    0.0023 H         1 <0>         0.0597
     26 H2         -0.5450    1.8219   -0.8730 H         1 <0>         0.0639
     27 H3         -0.5280    1.8123    0.9069 H         1 <0>         0.0825
     28 H4          0.0368   -1.8138    1.0616 H         1 <0>         0.1042
     29 H5         -1.2349    0.6754    2.2878 H         1 <0>         0.0661
     30 H6         -2.1140   -0.6674    1.5182 H         1 <0>         0.0649
     31 H7         -2.0872   -0.9190    3.9849 H         1 <0>         0.0691
     32 H8         -1.1866   -2.2375    3.1984 H         1 <0>         0.0660
     33 H9          0.0398    0.2857    4.4010 H         1 <0>         0.0635
     34 H10         0.0688   -1.3348    5.1369 H         1 <0>         0.0676
     35 H11         2.1906   -0.8607    3.9444 H         1 <0>         0.0687
     36 H12         1.3115   -2.2035    3.1748 H         1 <0>         0.0657
     37 H13         2.1638   -0.6091    1.4777 H         1 <0>         0.0635
     38 H14         1.2632    0.7094    2.2641 H         1 <0>         0.0655
     39 H15        -0.0334    0.9784   -2.3269 H         1 <0>         0.4012
     40 H16        -0.5958   -1.6380   -3.4985 H         1 <0>         0.1060
     41 H17         2.0023   -0.1339   -4.0615 H         1 <0>         0.0883
     42 H18         1.8557   -1.7196   -3.2645 H         1 <0>         0.1185
     43 H19         2.4366   -1.9785   -5.6620 H         1 <0>         0.1338
     44 H20         0.8281   -2.6565   -5.3168 H         1 <0>         0.1329
     45 H21        -1.0312    0.0450   -6.8097 H         1 <0>         0.1370
     46 H22        -1.1244   -1.5172   -5.9630 H         1 <0>         0.1341
     47 H23        -1.6969    0.3534   -4.4404 H         1 <0>         0.1193
     48 H24        -0.1125    1.1001   -4.7614 H         1 <0>         0.0927
     49 H25         1.9224   -1.7486   -7.9159 H         1 <0>         0.1323
     50 H26         0.2673   -2.3691   -7.7063 H         1 <0>         0.1323
     51 H27        -0.6121   -0.1507   -8.4921 H         1 <0>         0.0944
     52 H28         1.3673    1.2040   -7.8633 H         1 <0>         0.0547
     53 H29         2.3348    0.3639   -9.0989 H         1 <0>         0.0791
     54 H30        -0.1674    2.0303   -9.6270 H         1 <0>         0.0666
     55 H31         1.5071    2.5424   -9.9461 H         1 <0>         0.0727
     56 H32         0.4291    1.6886  -12.0094 H         1 <0>         0.0712
     57 H33         1.7869    0.6469  -11.5200 H         1 <0>         0.0666
     58 H34        -1.1600    0.1323  -10.9133 H         1 <0>         0.0663
     59 H35        -0.1925   -0.7078  -12.1488 H         1 <0>         0.0743
     60 H36         1.3423   -1.5341  -10.3852 H         1 <0>         0.0745
     61 H37        -0.3323   -2.0462  -10.0661 H         1 <0>         0.0740
     62 H38         1.3335    0.0265   -6.3907 H         1 <0>         0.4201
@<TRIPOS>BOND
     1    1    2 1
     2    1   25 1
     3    1   26 1
     4    1   27 1
     5    2    3 1
     6    2    9 am
     7    3    8 1
     8    3    4 1
     9    3   28 1
    10    4    5 1
    11    4   29 1
    12    4   30 1
    13    5    6 1
    14    5   31 1
    15    5   32 1
    16    6    7 1
    17    6   33 1
    18    6   34 1
    19    7    8 1
    20    7   35 1
    21    7   36 1
    22    8   37 1
    23    8   38 1
    24    9   10 2
    25    9   11 am
    26   11   12 1
    27   11   39 1
    28   12   17 1
    29   12   13 1
    30   12   40 1
    31   13   14 1
    32   13   41 1
    33   13   42 1
    34   14   15 1
    35   14   43 1
    36   14   44 1
    37   15   16 1
    38   15   18 1
    39   15   62 1
    40   16   17 1
    41   16   45 1
    42   16   46 1
    43   17   47 1
    44   17   48 1
    45   18   19 1
    46   18   49 1
    47   18   50 1
    48   19   24 1
    49   19   20 1
    50   19   51 1
    51   20   21 1
    52   20   52 1
    53   20   53 1
    54   21   22 1
    55   21   54 1
    56   21   55 1
    57   22   23 1
    58   22   56 1
    59   22   57 1
    60   23   24 1
    61   23   58 1
    62   23   59 1
    63   24   60 1
    64   24   61 1
@<TRIPOS>MOLECULE
ZINC04335572
   48    51     0     0     0
SMALL
USER_CHARGES
(4-chlorophenyl)methylsulfanyl-N-ethyl-methyl-BLAHamine
@<TRIPOS>ATOM
      1 C1          4.8475   -3.7327    0.0180 C.3       1 <0>        -0.1697
      2 C2          3.3297   -3.5450    0.0591 C.3       1 <0>         0.1120
      3 N1          3.0112   -2.1185   -0.0405 N.pl3     1 <0>        -0.6986
      4 C3          1.6927   -1.7016   -0.0246 C.ar      1 <0>         0.5111
      5 C4          1.3685   -0.3324   -0.2397 C.ar      1 <0>        -0.2785
      6 C5          2.2671    0.7935   -0.4928 C.2       1 <0>        -0.0391
      7 C6          1.6999    2.0058   -0.6644 C.2       1 <0>        -0.2626
      8 S1         -0.0417    1.7275   -0.5016 S.3       1 <0>         0.1989
      9 C7         -0.0057   -0.0210   -0.2018 C.ar      1 <0>         0.1813
     10 N2         -0.9186   -0.9471    0.0192 N.ar      1 <0>        -0.5308
     11 C8         -0.5579   -2.2086    0.2131 C.ar      1 <0>         0.3751
     12 N3          0.7198   -2.5705    0.1905 N.ar      1 <0>        -0.5647
     13 S2         -1.7966   -3.4268    0.5066 S.3       1 <0>         0.0670
     14 C9         -3.2798   -2.3924    0.4272 C.3       1 <0>        -0.0748
     15 C10        -4.5004   -3.2460    0.6564 C.ar      1 <0>        -0.0882
     16 C11        -5.1422   -3.8362   -0.4163 C.ar      1 <0>        -0.0854
     17 C12        -6.2584   -4.6238   -0.2061 C.ar      1 <0>        -0.1085
     18 C13        -6.7400   -4.8122    1.0771 C.ar      1 <0>        -0.0235
     19 C14        -6.1006   -4.2166    2.1498 C.ar      1 <0>        -0.1086
     20 C15        -4.9811   -3.4338    1.9389 C.ar      1 <0>        -0.0855
     21 Cl1        -8.1457   -5.7959    1.3413 Cl        1 <0>        -0.0585
     22 C16         2.4124    3.2957   -0.9311 C.3       1 <0>         0.1057
     23 C17         4.3503    1.8849   -1.2712 C.3       1 <0>         0.0021
     24 C18         3.7848    0.6468   -0.5703 C.3       1 <0>        -0.1064
     25 C19         4.6283    4.2787   -1.0298 C.3       1 <0>        -0.0412
     26 H1          5.0845   -4.7941    0.0921 H         1 <0>         0.0858
     27 H2          5.2372   -3.3382   -0.9204 H         1 <0>         0.0616
     28 H3          5.3023   -3.1997    0.8529 H         1 <0>         0.0625
     29 H4          2.9401   -3.9395    0.9976 H         1 <0>         0.0796
     30 H5          2.8749   -4.0780   -0.7758 H         1 <0>         0.0770
     31 H6          3.7252   -1.4664   -0.1177 H         1 <0>         0.4067
     32 H7         -3.2263   -1.6210    1.1954 H         1 <0>         0.1110
     33 H8         -3.3435   -1.9235   -0.5548 H         1 <0>         0.1110
     34 H9         -4.7687   -3.6855   -1.4184 H         1 <0>         0.1363
     35 H10        -6.7571   -5.0884   -1.0438 H         1 <0>         0.1398
     36 H11        -6.4759   -4.3636    3.1517 H         1 <0>         0.1397
     37 H12        -4.4817   -2.9692    2.7761 H         1 <0>         0.1362
     38 H13         2.2931    3.5718   -1.9787 H         1 <0>         0.1483
     39 H14         2.0029    4.0802   -0.2947 H         1 <0>         0.1461
     40 H15         4.0490    1.8774   -2.3187 H         1 <0>         0.1372
     41 H16         5.4384    1.8685   -1.2079 H         1 <0>         0.1411
     42 H17         4.1987    0.5709    0.4353 H         1 <0>         0.1116
     43 H18         4.0392   -0.2460   -1.1414 H         1 <0>         0.1222
     44 H19         4.3185    5.1424   -0.4415 H         1 <0>         0.1269
     45 H20         5.6871    4.0836   -0.8591 H         1 <0>         0.1268
     46 H21         4.4622    4.4813   -2.0878 H         1 <0>         0.1265
     47 N4          3.8444    3.1000   -0.6010 N.4       1 <0>        -0.3962
     48 H22         3.9411    2.9865    0.4149 H         1 <0>         0.4338
@<TRIPOS>BOND
     1    1    2 1
     2    1   26 1
     3    1   27 1
     4    1   28 1
     5    2    3 1
     6    2   29 1
     7    2   30 1
     8    3    4 1
     9    3   31 1
    10    4   12 ar
    11    4    5 ar
    12    5    9 ar
    13    5    6 1
    14    6   24 1
    15    6    7 2
    16    7    8 1
    17    7   22 1
    18    8    9 1
    19    9   10 ar
    20   10   11 ar
    21   11   12 ar
    22   11   13 1
    23   13   14 1
    24   14   15 1
    25   14   32 1
    26   14   33 1
    27   15   20 ar
    28   15   16 ar
    29   16   17 ar
    30   16   34 1
    31   17   18 ar
    32   17   35 1
    33   18   19 ar
    34   18   21 1
    35   19   20 ar
    36   19   36 1
    37   20   37 1
    38   22   38 1
    39   22   39 1
    40   22   47 1
    41   23   24 1
    42   23   40 1
    43   23   41 1
    44   23   47 1
    45   24   42 1
    46   24   43 1
    47   25   44 1
    48   25   45 1
    49   25   46 1
    50   25   47 1
    51   47   48 1
@<TRIPOS>MOLECULE
ZINC12430535
   55    59     0     0     0
SMALL
USER_CHARGES
(1R)-N-(2,3-dihydrobenzofuran-5-ylmethyl)-1-[5-methyl-1-(1-naphthyl)pyrazol-4-yl]ethanamine
@<TRIPOS>ATOM
      1 C1         -5.1981    5.1889    0.3135 C.3       1 <0>        -0.1135
      2 C2         -4.8977    3.7190    0.1707 C.2       1 <0>         0.1466
      3 C3         -5.8070    2.7174    0.1344 C.2       1 <0>        -0.3063
      4 C4         -5.1136    1.5097   -0.0005 C.2       1 <0>         0.0460
      5 N1         -3.8327    1.7730   -0.0497 N.2       1 <0>        -0.2533
      6 N2         -3.6657    3.1602    0.0523 N.pl3     1 <0>        -0.2998
      7 C5         -2.4468    3.8468    0.0404 C.ar      1 <0>         0.1266
      8 C6         -2.2728    4.9397   -0.7801 C.ar      1 <0>        -0.0965
      9 C7         -1.0645    5.6302   -0.7993 C.ar      1 <0>        -0.1126
     10 C8         -0.0232    5.2466   -0.0103 C.ar      1 <0>        -0.0777
     11 C9         -0.1599    4.1371    0.8409 C.ar      1 <0>        -0.0439
     12 C10        -1.3852    3.4264    0.8689 C.ar      1 <0>        -0.0375
     13 C11        -1.5180    2.3141    1.7150 C.ar      1 <0>        -0.1070
     14 C12        -0.4741    1.9398    2.5048 C.ar      1 <0>        -0.1021
     15 C13         0.7314    2.6383    2.4784 C.ar      1 <0>        -0.1070
     16 C14         0.8979    3.7177    1.6663 C.ar      1 <0>        -0.1002
     17 C15        -7.3028    2.8747    0.2290 C.3       1 <0>         0.1290
     18 H1         -7.5396    3.7004    0.9000 H         1 <0>         0.1399
     19 C16        -7.8738    3.1666   -1.1601 C.3       1 <0>        -0.1763
     20 C17        -9.1816    1.9002    1.4051 C.3       1 <0>         0.0577
     21 C18        -9.7558    0.6081    1.9263 C.ar      1 <0>        -0.2016
     22 C19        -9.4562    0.1826    3.2076 C.ar      1 <0>        -0.0522
     23 C20        -9.9768   -1.0007    3.6885 C.ar      1 <0>        -0.1390
     24 C21       -10.8095   -1.7780    2.8869 C.ar      1 <0>         0.1490
     25 C22       -11.1076   -1.3373    1.6040 C.ar      1 <0>        -0.1730
     26 C23       -10.5889   -0.1539    1.1267 C.ar      1 <0>        -0.0406
     27 C24       -12.0325   -2.3669    0.9842 C.3       1 <0>        -0.1155
     28 C25       -12.4901   -3.1725    2.2231 C.3       1 <0>         0.0475
     29 O1        -11.4102   -2.9708    3.1505 O.3       1 <0>        -0.2947
     30 H2         -5.4148    5.6124   -0.6672 H         1 <0>         0.0968
     31 H3         -6.0615    5.3216    0.9654 H         1 <0>         0.0930
     32 H4         -4.3353    5.6958    0.7455 H         1 <0>         0.0871
     33 H5         -5.5596    0.5276   -0.0553 H         1 <0>         0.1867
     34 H6         -3.0832    5.2642   -1.4160 H         1 <0>         0.1315
     35 H7         -0.9511    6.4843   -1.4504 H         1 <0>         0.1405
     36 H8          0.9071    5.7945   -0.0390 H         1 <0>         0.1410
     37 H9         -2.4449    1.7605    1.7423 H         1 <0>         0.1279
     38 H10        -0.5804    1.0863    3.1580 H         1 <0>         0.1282
     39 H11         1.5457    2.3183    3.1116 H         1 <0>         0.1319
     40 H12         1.8379    4.2495    1.6564 H         1 <0>         0.1375
     41 H13        -8.9557    3.2803   -1.0916 H         1 <0>         0.0818
     42 H14        -7.4356    4.0865   -1.5472 H         1 <0>         0.1030
     43 H15        -7.6370    2.3409   -1.8311 H         1 <0>         0.0822
     44 H16        -9.0323    2.5920    2.2341 H         1 <0>         0.1374
     45 H17        -9.8714    2.3399    0.6847 H         1 <0>         0.1369
     46 H18        -8.8110    0.7798    3.8348 H         1 <0>         0.1403
     47 H19        -9.7381   -1.3256    4.6905 H         1 <0>         0.1418
     48 H20       -10.8290    0.1769    0.1271 H         1 <0>         0.1343
     49 H21       -12.8807   -1.8856    0.4974 H         1 <0>         0.1005
     50 H22       -11.4928   -3.0031    0.2827 H         1 <0>         0.0989
     51 H23       -13.4218   -2.7713    2.6221 H         1 <0>         0.0875
     52 H24       -12.5969   -4.2294    1.9786 H         1 <0>         0.1177
     53 N3         -7.8890    1.6252    0.7497 N.4       1 <0>        -0.5178
     54 H25        -7.2453    1.2078    1.4321 H         1 <0>         0.4318
     55 H26        -8.0358    0.9704   -0.0273 H         1 <0>         0.4293
@<TRIPOS>BOND
     1    1    2 1
     2    1   30 1
     3    1   31 1
     4    1   32 1
     5    2    6 1
     6    2    3 2
     7    3    4 1
     8    3   17 1
     9    4    5 2
    10    4   33 1
    11    5    6 1
    12    6    7 1
    13    7   12 ar
    14    7    8 ar
    15    8    9 ar
    16    8   34 1
    17    9   10 ar
    18    9   35 1
    19   10   11 ar
    20   10   36 1
    21   11   16 ar
    22   11   12 ar
    23   12   13 ar
    24   13   14 ar
    25   13   37 1
    26   14   15 ar
    27   14   38 1
    28   15   16 ar
    29   15   39 1
    30   16   40 1
    31   17   18 1
    32   17   19 1
    33   17   53 1
    34   19   41 1
    35   19   42 1
    36   19   43 1
    37   20   21 1
    38   20   44 1
    39   20   45 1
    40   20   53 1
    41   21   26 ar
    42   21   22 ar
    43   22   23 ar
    44   22   46 1
    45   23   24 ar
    46   23   47 1
    47   24   29 1
    48   24   25 ar
    49   25   26 ar
    50   25   27 1
    51   26   48 1
    52   27   28 1
    53   27   49 1
    54   27   50 1
    55   28   29 1
    56   28   51 1
    57   28   52 1
    58   53   54 1
    59   53   55 1
@<TRIPOS>MOLECULE
ZINC22855453
   48    50     0     0     0
SMALL
USER_CHARGES
2-[(2Z)-2-(2,3-dimethylphenyl)imino-4-(4-methoxyphenyl)thiazol-3-yl]ethanol
@<TRIPOS>ATOM
      1 C1         10.7262   -2.9954    1.8046 C.3       1 <0>        -0.1253
      2 C2         10.0694   -2.4207    0.5760 C.ar      1 <0>        -0.0716
      3 C3         10.5419   -2.7571   -0.6807 C.ar      1 <0>        -0.0757
      4 C4          9.9448   -2.2347   -1.8144 C.ar      1 <0>        -0.1065
      5 C5          8.8697   -1.3782   -1.6994 C.ar      1 <0>        -0.0934
      6 C6          8.3907   -1.0300   -0.4339 C.ar      1 <0>         0.0415
      7 C7          8.9988   -1.5615    0.7066 C.ar      1 <0>        -0.0551
      8 C8          8.4855   -1.1969    2.0758 C.3       1 <0>        -0.1273
      9 N1          7.3285   -0.1778   -0.3122 N.pl3     1 <0>        -0.5518
     10 C9          6.0961   -0.6446   -0.3861 C.cat     1 <0>         0.3916
     11 N2          4.9050    0.0420   -0.3757 N.pl3     1 <0>        -0.4743
     12 C10         3.7381   -0.6672   -0.4614 C.2       1 <0>         0.1474
     13 C11         3.7803   -2.0114   -0.5635 C.2       1 <0>        -0.1867
     14 S1          5.5361   -2.3340   -0.5336 S.3       1 <0>         0.2256
     15 C12         2.4374    0.0370   -0.4483 C.ar      1 <0>        -0.1232
     16 C13         1.3729   -0.4734    0.2962 C.ar      1 <0>        -0.0353
     17 C14         0.1621    0.1862    0.3062 C.ar      1 <0>        -0.1468
     18 C15         0.0011    1.3566   -0.4230 C.ar      1 <0>         0.1665
     19 C16         1.0575    1.8676   -1.1648 C.ar      1 <0>        -0.2052
     20 C17         2.2714    1.2139   -1.1800 C.ar      1 <0>        -0.0578
     21 O1         -1.1957    2.0009   -0.4151 O.3       1 <0>        -0.3060
     22 C18        -1.2923    3.1995   -1.1871 C.3       1 <0>         0.0172
     23 C19         4.8855    1.5030   -0.2700 C.3       1 <0>         0.0591
     24 C20         6.0168    1.9629    0.6517 C.3       1 <0>         0.0815
     25 O2          5.9977    3.3880    0.7548 O.3       1 <0>        -0.5795
     26 H1         11.5549   -3.6532    1.5036 H         1 <0>         0.0772
     27 H2          9.9877   -3.5749    2.3780 H         1 <0>         0.0788
     28 H3         11.1154   -2.1776    2.4289 H         1 <0>         0.0787
     29 H4         11.3805   -3.4308   -0.7769 H         1 <0>         0.1405
     30 H5         10.3188   -2.5016   -2.7918 H         1 <0>         0.1426
     31 H6          8.4021   -0.9745   -2.5852 H         1 <0>         0.1343
     32 H7          7.6347   -0.5067    1.9766 H         1 <0>         0.0530
     33 H8          9.2874   -0.7102    2.6504 H         1 <0>         0.0893
     34 H9          8.1598   -2.1076    2.5997 H         1 <0>         0.0884
     35 H10         2.9625   -2.7122   -0.6433 H         1 <0>         0.2325
     36 H11         1.4972   -1.3840    0.8634 H         1 <0>         0.1432
     37 H12        -0.6620   -0.2079    0.8823 H         1 <0>         0.1476
     38 H13         0.9283    2.7783   -1.7307 H         1 <0>         0.1422
     39 H14         3.0927    1.6118   -1.7576 H         1 <0>         0.1292
     40 H15        -2.3062    3.6155   -1.0929 H         1 <0>         0.1124
     41 H16        -1.0856    2.9729   -2.2435 H         1 <0>         0.0633
     42 H17        -0.5595    3.9327   -0.8191 H         1 <0>         0.0626
     43 H18         5.0232    1.9447   -1.2680 H         1 <0>         0.1189
     44 H19         3.9198    1.8278    0.1446 H         1 <0>         0.1424
     45 H20         5.8791    1.5212    1.6497 H         1 <0>         0.0757
     46 H21         6.9825    1.6382    0.2371 H         1 <0>         0.0419
     47 H22         6.7420    3.9043    1.3789 H         1 <0>         0.4436
     48 H23         7.5010    0.8968   -0.1527 H         1 <0>         0.4530
@<TRIPOS>BOND
     1    1    2 1
     2    1   26 1
     3    1   27 1
     4    1   28 1
     5    2    7 ar
     6    2    3 ar
     7    3    4 ar
     8    3   29 1
     9    4    5 ar
    10    4   30 1
    11    5    6 ar
    12    5   31 1
    13    6    7 ar
    14    6    9 1
    15    7    8 1
    16    8   32 1
    17    8   33 1
    18    8   34 1
    19    9   10 2
    20    9   48 1
    21   10   14 1
    22   10   11 1
    23   11   12 1
    24   11   23 1
    25   12   13 2
    26   12   15 1
    27   13   14 1
    28   13   35 1
    29   15   20 ar
    30   15   16 ar
    31   16   17 ar
    32   16   36 1
    33   17   18 ar
    34   17   37 1
    35   18   19 ar
    36   18   21 1
    37   19   20 ar
    38   19   38 1
    39   20   39 1
    40   21   22 1
    41   22   40 1
    42   22   41 1
    43   22   42 1
    44   23   24 1
    45   23   43 1
    46   23   44 1
    47   24   25 1
    48   24   45 1
    49   24   46 1
    50   25   47 1
@<TRIPOS>MOLECULE
ZINC39024390
   59    63     0     0     0
SMALL
USER_CHARGES

@<TRIPOS>ATOM
      1 C1         -0.0156    1.5028    0.0108 C.3       1 <0>        -0.1337
      2 C2          0.0038   -0.0040    0.0023 C.ar      1 <0>        -0.0243
      3 C3         -0.4146   -0.7041    1.1212 C.ar      1 <0>        -0.1197
      4 C4         -0.4001   -2.0823    1.1220 C.ar      1 <0>        -0.0898
      5 C5          0.0396   -2.7744   -0.0132 C.ar      1 <0>        -0.1138
      6 C6          0.4612   -2.0585   -1.1405 C.ar      1 <0>        -0.0350
      7 C7          0.4348   -0.6805   -1.1262 C.ar      1 <0>        -0.1221
      8 C8          0.0591   -4.2430   -0.0213 C.2       1 <0>         0.3088
      9 N1         -0.0310   -4.9031   -1.1532 N.2       1 <0>        -0.4937
     10 C9          0.1198   -6.2313   -1.2691 C.2       1 <0>         0.1878
     11 C10         0.6724   -6.9913   -0.2362 C.2       1 <0>        -0.1460
     12 C11         0.8602   -6.3325    0.9706 C.2       1 <0>         0.0937
     13 C12         1.6234   -6.5683    2.0827 C.ar      1 <0>        -0.1522
     14 C13         2.3190   -7.7158    2.5289 C.ar      1 <0>        -0.0015
     15 C14         3.0378   -7.5919    3.6813 C.ar      1 <0>        -0.1548
     16 C15         3.1110   -6.4086    4.4173 C.ar      1 <0>         0.0409
     17 C16         2.4550   -5.2674    4.0710 C.ar      1 <0>        -0.1957
     18 C17         1.6628   -5.3152    2.8891 C.ar      1 <0>         0.3046
     19 N2          0.8887   -4.4000    2.3600 N.pl3     1 <0>        -0.5871
     20 C18         0.1872   -5.0015    1.2516 C.3       1 <0>         0.0632
     21 H1         -0.8201   -5.2234    1.6041 H         1 <0>         0.2013
     22 C19        -0.3084   -6.9040   -2.5156 C.2       1 <0>         0.5546
     23 O1         -0.1773   -8.1066   -2.6331 O.2       1 <0>        -0.4992
     24 N3         -0.8439   -6.1831   -3.5207 N.am      1 <0>        -0.6971
     25 C20        -1.2678   -6.8490   -4.7547 C.3       1 <0>         0.1181
     26 C21        -1.8361   -5.8114   -5.7249 C.3       1 <0>        -0.0973
     27 C22        -2.2722   -6.4964   -6.9944 C.2       1 <0>        -0.1285
     28 C23        -3.5164   -6.8363   -7.1040 C.2       1 <0>        -0.1378
     29 C24        -4.0954   -7.5330   -8.3005 C.3       1 <0>        -0.0943
     30 C25        -3.1510   -7.3984   -9.4970 C.3       1 <0>        -0.1230
     31 C26        -1.7384   -7.7917   -9.0468 C.3       1 <0>        -0.1217
     32 C27        -1.2383   -6.7367   -8.0552 C.3       1 <0>        -0.0830
     33 H2         -0.9824    1.8557   -0.3482 H         1 <0>         0.0874
     34 H3          0.1481    1.8626    1.0266 H         1 <0>         0.0781
     35 H4          0.7734    1.8800   -0.6398 H         1 <0>         0.0793
     36 H5         -0.7531   -0.1687    1.9959 H         1 <0>         0.1419
     37 H6         -0.7265   -2.6269    1.9956 H         1 <0>         0.1230
     38 H7          0.8018   -2.5845   -2.0201 H         1 <0>         0.1430
     39 H8          0.7553   -0.1267   -1.9963 H         1 <0>         0.1429
     40 H9          0.9375   -8.0298   -0.3686 H         1 <0>         0.1935
     41 H10         2.2824   -8.6469    1.9828 H         1 <0>         0.1667
     42 H11         3.5780   -8.4543    4.0431 H         1 <0>         0.1534
     43 H12         3.7201   -6.3979    5.3090 H         1 <0>         0.1579
     44 H13         2.5318   -4.3684    4.6647 H         1 <0>         0.1680
     45 H14        -0.9485   -5.2233   -3.4269 H         1 <0>         0.4131
     46 H15        -0.4117   -7.3442   -5.2129 H         1 <0>         0.0807
     47 H16        -2.0345   -7.5886   -4.5236 H         1 <0>         0.0792
     48 H17        -2.6923   -5.3162   -5.2667 H         1 <0>         0.0756
     49 H18        -1.0695   -5.0718   -5.9560 H         1 <0>         0.0784
     50 H19        -4.1790   -6.6044   -6.2833 H         1 <0>         0.1027
     51 H20        -4.2381   -8.5888   -8.0698 H         1 <0>         0.0760
     52 H21        -5.0582   -7.0860   -8.5480 H         1 <0>         0.0736
     53 H22        -3.4780   -8.0610  -10.2983 H         1 <0>         0.0675
     54 H23        -3.1496   -6.3665   -9.8483 H         1 <0>         0.0648
     55 H24        -1.7663   -8.7688   -8.5645 H         1 <0>         0.0655
     56 H25        -1.0745   -7.8250   -9.9106 H         1 <0>         0.0677
     57 H26        -1.0395   -5.8044   -8.5837 H         1 <0>         0.0744
     58 H27        -0.3179   -7.0890   -7.5895 H         1 <0>         0.0697
     59 H28         0.8047   -3.4812    2.6594 H         1 <0>         0.4537
@<TRIPOS>BOND
     1    1    2 1
     2    1   33 1
     3    1   34 1
     4    1   35 1
     5    2    7 ar
     6    2    3 ar
     7    3    4 ar
     8    3   36 1
     9    4    5 ar
    10    4   37 1
    11    5    6 ar
    12    5    8 1
    13    6    7 ar
    14    6   38 1
    15    7   39 1
    16    8   20 1
    17    8    9 2
    18    9   10 1
    19   10   11 2
    20   10   22 1
    21   11   12 1
    22   11   40 1
    23   12   20 1
    24   12   13 2
    25   13   18 ar
    26   13   14 ar
    27   14   15 ar
    28   14   41 1
    29   15   16 ar
    30   15   42 1
    31   16   17 ar
    32   16   43 1
    33   17   18 ar
    34   17   44 1
    35   18   19 2
    36   19   20 1
    37   19   59 1
    38   20   21 1
    39   22   23 2
    40   22   24 am
    41   24   25 1
    42   24   45 1
    43   25   26 1
    44   25   46 1
    45   25   47 1
    46   26   27 1
    47   26   48 1
    48   26   49 1
    49   27   32 1
    50   27   28 2
    51   28   29 1
    52   28   50 1
    53   29   30 1
    54   29   51 1
    55   29   52 1
    56   30   31 1
    57   30   53 1
    58   30   54 1
    59   31   32 1
    60   31   55 1
    61   31   56 1
    62   32   57 1
    63   32   58 1
@<TRIPOS>MOLECULE
ZINC41291194
   51    54     0     0     0
SMALL
USER_CHARGES

@<TRIPOS>ATOM
      1 C1         -0.1003    2.5415   -0.7897 C.3       1 <0>        -0.1432
      2 C2         -0.2066    1.0208   -0.6592 C.3       1 <0>        -0.0426
      3 C3          0.4041    0.5792    0.6723 C.3       1 <0>        -0.1432
      4 C4         -1.6787    0.6065   -0.7075 C.3       1 <0>        -0.1520
      5 C5          0.5370    0.3660   -1.7947 C.ar      1 <0>         0.0038
      6 C6         -0.1400   -0.4579   -2.6768 C.ar      1 <0>        -0.1295
      7 C7          0.5338   -1.0601   -3.7185 C.ar      1 <0>        -0.0441
      8 C8          1.9036   -0.8368   -3.8821 C.ar      1 <0>        -0.1340
      9 C9          2.5805   -0.0036   -2.9874 C.ar      1 <0>        -0.0467
     10 C10         1.8924    0.5960   -1.9535 C.ar      1 <0>        -0.1226
     11 C11         2.6315   -1.4777   -4.9935 C.2       1 <0>         0.3293
     12 C12         3.9852   -1.2487   -5.1343 C.2       1 <0>        -0.3393
     13 C13         4.6843   -1.8497   -6.1820 C.2       1 <0>         0.3666
     14 O1          6.0094   -1.6407   -6.3397 O.3       1 <0>        -0.4067
     15 C14         3.9693   -2.6853   -7.0761 C.2       1 <0>        -0.2059
     16 C15         4.6212   -3.3162   -8.1477 C.2       1 <0>         0.0099
     17 C16         3.9186   -4.1145   -8.9947 C.2       1 <0>        -0.1639
     18 C17         2.5402   -4.3128   -8.8042 C.2       1 <0>         0.2806
     19 C18         1.8786   -3.6918   -7.7436 C.2       1 <0>        -0.1946
     20 C19         2.5854   -2.8779   -6.8761 C.2       1 <0>         0.2016
     21 O2          1.9636   -2.2747   -5.8417 O.3       1 <0>        -0.1735
     22 N1          1.8467   -5.1144   -9.6589 N.am      1 <0>        -0.6350
     23 C20         2.4921   -5.9454  -10.4536 C.2       1 <0>         0.5454
     24 O3          3.6969   -6.0854  -10.3394 O.2       1 <0>        -0.4961
     25 C21         1.7395   -6.7218  -11.5032 C.3       1 <0>        -0.2109
     26 C22         1.6216   -8.2354  -11.3132 C.3       1 <0>        -0.1452
     27 C23         2.5451   -7.6697  -12.3940 C.3       1 <0>        -0.1376
     28 H1          0.9485    2.8367   -0.7553 H         1 <0>         0.0606
     29 H2         -0.5353    2.8562   -1.7383 H         1 <0>         0.0601
     30 H3         -0.6381    3.0152    0.0316 H         1 <0>         0.0702
     31 H4         -0.1338    1.0528    1.4936 H         1 <0>         0.0702
     32 H5          0.3283   -0.5042    0.7652 H         1 <0>         0.0601
     33 H6          1.4528    0.8744    0.7067 H         1 <0>         0.0606
     34 H7         -2.1137    0.9211   -1.6561 H         1 <0>         0.0625
     35 H8         -1.7544   -0.4769   -0.6146 H         1 <0>         0.0625
     36 H9         -2.2165    1.0802    0.1138 H         1 <0>         0.0694
     37 H10        -1.1985   -0.6298   -2.5489 H         1 <0>         0.1491
     38 H11         0.0042   -1.7031   -4.4060 H         1 <0>         0.1425
     39 H12         3.6391    0.1735   -3.1077 H         1 <0>         0.1405
     40 H13         2.4134    1.2434   -1.2637 H         1 <0>         0.1455
     41 H14         4.5016   -0.6063   -4.4364 H         1 <0>         0.1918
     42 H15         5.6801   -3.1673   -8.2992 H         1 <0>         0.1671
     43 H16         4.4221   -4.5985   -9.8185 H         1 <0>         0.1948
     44 H17         0.8193   -3.8458   -7.6007 H         1 <0>         0.1702
     45 H18         0.8778   -5.0742   -9.6831 H         1 <0>         0.4307
     46 H19         0.8937   -6.2036  -11.9550 H         1 <0>         0.1369
     47 H20         2.0885   -8.6696  -10.4291 H         1 <0>         0.1039
     48 H21         0.6980   -8.7133  -11.6400 H         1 <0>         0.1148
     49 H22         2.2290   -7.7753  -13.4318 H         1 <0>         0.1137
     50 H23         3.6194   -7.7316  -12.2209 H         1 <0>         0.1131
     51 H24         6.3972   -1.0553   -5.6749 H         1 <0>         0.4382
@<TRIPOS>BOND
     1    1    2 1
     2    1   28 1
     3    1   29 1
     4    1   30 1
     5    2    3 1
     6    2    4 1
     7    2    5 1
     8    3   31 1
     9    3   32 1
    10    3   33 1
    11    4   34 1
    12    4   35 1
    13    4   36 1
    14    5   10 ar
    15    5    6 ar
    16    6    7 ar
    17    6   37 1
    18    7    8 ar
    19    7   38 1
    20    8    9 ar
    21    8   11 1
    22    9   10 ar
    23    9   39 1
    24   10   40 1
    25   11   21 1
    26   11   12 2
    27   12   13 1
    28   12   41 1
    29   13   14 1
    30   13   15 2
    31   14   51 1
    32   15   20 1
    33   15   16 1
    34   16   17 2
    35   16   42 1
    36   17   18 1
    37   17   43 1
    38   18   19 1
    39   18   22 2
    40   19   20 2
    41   19   44 1
    42   20   21 1
    43   22   23 am
    44   22   45 1
    45   23   24 2
    46   23   25 1
    47   25   27 1
    48   25   26 1
    49   25   46 1
    50   26   27 1
    51   26   47 1
    52   26   48 1
    53   27   49 1
    54   27   50 1
@<TRIPOS>MOLECULE
ZINC04453512
   58    61     0     0     0
SMALL
USER_CHARGES
6-amino-2-isopropyl-8-(4-methoxy-1-naphthyl)-1,3,8,8a-tetrahydroisoquinoline-5,7,7-tricarbonitrile
@<TRIPOS>ATOM
      1 C1          1.9383   -1.1821   -5.0318 C.3       1 <0>        -0.1861
      2 C2          0.6179   -1.5425   -4.3481 C.3       1 <0>         0.0274
      3 C3         -0.3263   -2.1825   -5.3678 C.3       1 <0>        -0.1837
      4 C4          1.4503   -3.7459   -3.7710 C.3       1 <0>         0.0293
      5 C5          1.8349   -4.5945   -2.5846 C.2       1 <0>        -0.1563
      6 C6          1.1318   -4.5313   -1.4691 C.2       1 <0>        -0.0584
      7 C7         -0.0961   -3.6792   -1.3222 C.3       1 <0>        -0.0715
      8 H1         -0.9466   -4.3548   -1.2311 H         1 <0>         0.1456
      9 C8         -0.3509   -2.7683   -2.5022 C.3       1 <0>         0.0012
     10 C9          0.0211   -2.8966   -0.0128 C.3       1 <0>        -0.0315
     11 H2         -0.8354   -2.2306    0.0922 H         1 <0>         0.1415
     12 C10         0.0507   -3.8839    1.1543 C.3       1 <0>         0.2401
     13 C11         1.0729   -4.9602    0.9453 C.2       1 <0>         0.1830
     14 C12         1.5804   -5.2846   -0.2711 C.3       1 <0>        -0.0088
     15 C13         2.5375   -6.3423   -0.3975 C.1       1 <0>         0.1866
     16 N1          3.2967   -7.1813   -0.4979 N.1       1 <0>        -0.3361
     17 N2          1.5174   -5.6514    2.0373 N.2       1 <0>        -0.6209
     18 C14         0.3688   -3.1539    2.3924 C.1       1 <0>         0.1982
     19 N3          0.6142   -2.5905    3.3478 N.1       1 <0>        -0.3343
     20 C15        -1.2773   -4.5037    1.2926 C.1       1 <0>         0.1897
     21 N4         -2.3021   -4.9821    1.3993 N.1       1 <0>        -0.3319
     22 C16         1.2919   -2.0867   -0.0210 C.ar      1 <0>        -0.1623
     23 C17         2.4839   -2.6829    0.2582 C.ar      1 <0>        -0.0734
     24 C18         3.6695   -1.9536    0.2565 C.ar      1 <0>        -0.2312
     25 C19         3.6711   -0.6165   -0.0265 C.ar      1 <0>         0.1815
     26 C20         2.4552    0.0331   -0.3206 C.ar      1 <0>        -0.0720
     27 C21         1.2510   -0.7137   -0.3176 C.ar      1 <0>        -0.0078
     28 C22         0.0383   -0.0665   -0.6107 C.ar      1 <0>        -0.1566
     29 C23         0.0369    1.2650   -0.8929 C.ar      1 <0>        -0.0725
     30 C24         1.2215    1.9989   -0.8958 C.ar      1 <0>        -0.1234
     31 C25         2.4143    1.4053   -0.6161 C.ar      1 <0>        -0.0676
     32 O1          4.8362    0.0812   -0.0247 O.3       1 <0>        -0.3016
     33 C26         6.0273   -0.6458    0.2827 C.3       1 <0>         0.0201
     34 H3          2.3971   -2.0848   -5.4350 H         1 <0>         0.0826
     35 H4          1.7476   -0.4784   -5.8421 H         1 <0>         0.1095
     36 H5          2.6110   -0.7260   -4.3054 H         1 <0>         0.0806
     37 H6          0.1591   -0.6396   -3.9450 H         1 <0>         0.1408
     38 H7          0.1324   -3.0854   -5.7710 H         1 <0>         0.0831
     39 H8         -1.2670   -2.4393   -4.8807 H         1 <0>         0.0831
     40 H9         -0.5169   -1.4789   -6.1781 H         1 <0>         0.1079
     41 H10         0.7110   -4.2703   -4.3763 H         1 <0>         0.1551
     42 H11         2.3336   -3.5284   -4.3715 H         1 <0>         0.1491
     43 H12         2.6867   -5.2553   -2.6480 H         1 <0>         0.1579
     44 H13        -1.0754   -3.2412   -3.1651 H         1 <0>         0.1512
     45 H14        -0.7640   -1.8266   -2.1404 H         1 <0>         0.1437
     46 H15         2.1787   -6.3530    1.9309 H         1 <0>         0.3573
     47 H16         2.3812   -4.8351    0.1247 H         1 <0>         0.1596
     48 H17         2.5098   -3.7385    0.4851 H         1 <0>         0.1242
     49 H18         4.6011   -2.4513    0.4815 H         1 <0>         0.1386
     50 H19        -0.8874   -0.6226   -0.6119 H         1 <0>         0.1354
     51 H20        -0.8956    1.7592   -1.1223 H         1 <0>         0.1350
     52 H21         1.1930    3.0544   -1.1230 H         1 <0>         0.1347
     53 H22         3.3246    1.9865   -0.6224 H         1 <0>         0.1405
     54 H23         6.8832    0.0284    0.2498 H         1 <0>         0.1131
     55 H24         5.9427   -1.0769    1.2802 H         1 <0>         0.0647
     56 H25         6.1648   -1.4434   -0.4474 H         1 <0>         0.0626
     57 N5          0.8910   -2.4857   -3.2390 N.4       1 <0>        -0.3960
     58 H26         1.5719   -2.0606   -2.5987 H         1 <0>         0.4295
@<TRIPOS>BOND
     1    1    2 1
     2    1   34 1
     3    1   35 1
     4    1   36 1
     5    2    3 1
     6    2   37 1
     7    2   57 1
     8    3   38 1
     9    3   39 1
    10    3   40 1
    11    4    5 1
    12    4   41 1
    13    4   42 1
    14    4   57 1
    15    5    6 2
    16    5   43 1
    17    6   14 1
    18    6    7 1
    19    7    8 1
    20    7    9 1
    21    7   10 1
    22    9   44 1
    23    9   45 1
    24    9   57 1
    25   10   11 1
    26   10   12 1
    27   10   22 1
    28   12   13 1
    29   12   18 1
    30   12   20 1
    31   13   14 1
    32   13   17 2
    33   14   15 1
    34   14   47 1
    35   15   16 3
    36   17   46 1
    37   18   19 3
    38   20   21 3
    39   22   27 ar
    40   22   23 ar
    41   23   24 ar
    42   23   48 1
    43   24   25 ar
    44   24   49 1
    45   25   26 ar
    46   25   32 1
    47   26   31 ar
    48   26   27 ar
    49   27   28 ar
    50   28   29 ar
    51   28   50 1
    52   29   30 ar
    53   29   51 1
    54   30   31 ar
    55   30   52 1
    56   31   53 1
    57   32   33 1
    58   33   54 1
    59   33   55 1
    60   33   56 1
    61   57   58 1
@<TRIPOS>MOLECULE
ZINC12692369
   57    60     0     0     0
SMALL
USER_CHARGES
4-[2-[2-(4-chlorophenoxy)ethyl-methyl-amino]acetyl]spiro[1H-quinoxaline-3,1'-cyclopentane]-2-one
@<TRIPOS>ATOM
      1 C1         -0.6876    5.8049    1.4652 C.3       1 <0>        -0.0475
      2 C2          1.0610    5.6139   -0.1988 C.3       1 <0>         0.0035
      3 C3          2.5588    5.3267   -0.3211 C.3       1 <0>         0.0210
      4 O1          2.8908    4.1838    0.4698 O.3       1 <0>        -0.3242
      5 C4          4.1922    3.7916    0.4716 C.ar      1 <0>         0.1170
      6 C5          4.5845    2.6898    1.2176 C.ar      1 <0>        -0.1270
      7 C6          5.9076    2.2925    1.2179 C.ar      1 <0>        -0.0676
      8 C7          6.8413    2.9928    0.4747 C.ar      1 <0>        -0.0594
      9 C8          6.4520    4.0923   -0.2697 C.ar      1 <0>        -0.0690
     10 C9          5.1300    4.4930   -0.2721 C.ar      1 <0>        -0.1913
     11 Cl1         8.5033    2.4916    0.4766 Cl        1 <0>        -0.0512
     12 C10         1.1723    7.3551    1.4800 C.3       1 <0>        -0.0404
     13 C11         1.0594    7.6126    2.9605 C.2       1 <0>         0.5047
     14 O2          1.0368    6.6819    3.7380 O.2       1 <0>        -0.4794
     15 N1          0.9837    8.8771    3.4208 N.am      1 <0>        -0.5230
     16 C12         1.1808    9.9776    2.5688 C.ar      1 <0>         0.0808
     17 C13         2.0038    9.8915    1.4641 C.ar      1 <0>        -0.1343
     18 C14         2.1789   10.9969    0.6503 C.ar      1 <0>        -0.1072
     19 C15         1.5292   12.1831    0.9396 C.ar      1 <0>        -0.0815
     20 C16         0.6962   12.2742    2.0394 C.ar      1 <0>        -0.1185
     21 C17         0.5114   11.1709    2.8574 C.ar      1 <0>         0.1525
     22 N2         -0.3372   11.2380    3.9686 N.am      1 <0>        -0.6620
     23 C18        -0.2720   10.3033    4.9380 C.2       1 <0>         0.5212
     24 O3         -1.0016   10.3860    5.9034 O.2       1 <0>        -0.4795
     25 C19         0.6983    9.1592    4.8324 C.3       1 <0>         0.1571
     26 C20         2.0040    9.5049    5.5690 C.3       1 <0>        -0.1215
     27 C21         1.8329    8.8561    6.9662 C.3       1 <0>        -0.1261
     28 C22         1.0979    7.5315    6.6415 C.3       1 <0>        -0.1093
     29 C23         0.1193    7.9090    5.5090 C.3       1 <0>        -0.1726
     30 H1         -0.9449    4.7482    1.3921 H         1 <0>         0.1328
     31 H2         -0.9100    6.1643    2.4699 H         1 <0>         0.1211
     32 H3         -1.2704    6.3718    0.7392 H         1 <0>         0.1276
     33 H4          0.7933    6.4363   -0.8622 H         1 <0>         0.1560
     34 H5          0.4965    4.7240   -0.4773 H         1 <0>         0.1513
     35 H6          3.1241    6.1893    0.0317 H         1 <0>         0.0842
     36 H7          2.8073    5.1314   -1.3643 H         1 <0>         0.1159
     37 H8          3.8552    2.1404    1.7943 H         1 <0>         0.1441
     38 H9          6.2134    1.4350    1.7988 H         1 <0>         0.1479
     39 H10         7.1823    4.6378   -0.8489 H         1 <0>         0.1426
     40 H11         4.8265    5.3512   -0.8533 H         1 <0>         0.1366
     41 H12         2.2076    7.4877    1.1660 H         1 <0>         0.1647
     42 H13         0.5361    8.0562    0.9398 H         1 <0>         0.1656
     43 H14         2.5120    8.9657    1.2382 H         1 <0>         0.1316
     44 H15         2.8248   10.9332   -0.2129 H         1 <0>         0.1419
     45 H16         1.6737   13.0434    0.3028 H         1 <0>         0.1434
     46 H17         0.1907   13.2027    2.2602 H         1 <0>         0.1450
     47 H18        -0.9771   11.9633    4.0420 H         1 <0>         0.4225
     48 H19         2.8605    9.0742    5.0504 H         1 <0>         0.0881
     49 H20         2.1159   10.5853    5.6609 H         1 <0>         0.0765
     50 H21         1.2237    9.4873    7.6131 H         1 <0>         0.0779
     51 H22         2.8020    8.6578    7.4242 H         1 <0>         0.0814
     52 H23         0.5515    7.1746    7.5145 H         1 <0>         0.0763
     53 H24         1.8055    6.7768    6.2984 H         1 <0>         0.0729
     54 H25        -0.8645    8.1299    5.9231 H         1 <0>         0.0837
     55 H26         0.0480    7.0936    4.7892 H         1 <0>         0.1470
     56 N3          0.7589    5.9629    1.2054 N.4       1 <0>        -0.3896
     57 H27         1.2800    5.3318    1.8254 H         1 <0>         0.4456
@<TRIPOS>BOND
     1    1   30 1
     2    1   31 1
     3    1   32 1
     4    1   56 1
     5    2    3 1
     6    2   33 1
     7    2   34 1
     8    2   56 1
     9    3    4 1
    10    3   35 1
    11    3   36 1
    12    4    5 1
    13    5   10 ar
    14    5    6 ar
    15    6    7 ar
    16    6   37 1
    17    7    8 ar
    18    7   38 1
    19    8    9 ar
    20    8   11 1
    21    9   10 ar
    22    9   39 1
    23   10   40 1
    24   12   13 1
    25   12   41 1
    26   12   42 1
    27   12   56 1
    28   13   14 2
    29   13   15 am
    30   15   25 1
    31   15   16 1
    32   16   21 ar
    33   16   17 ar
    34   17   18 ar
    35   17   43 1
    36   18   19 ar
    37   18   44 1
    38   19   20 ar
    39   19   45 1
    40   20   21 ar
    41   20   46 1
    42   21   22 1
    43   22   23 am
    44   22   47 1
    45   23   24 2
    46   23   25 1
    47   25   29 1
    48   25   26 1
    49   26   27 1
    50   26   48 1
    51   26   49 1
    52   27   28 1
    53   27   50 1
    54   27   51 1
    55   28   29 1
    56   28   52 1
    57   28   53 1
    58   29   54 1
    59   29   55 1
    60   56   57 1
@<TRIPOS>MOLECULE
ZINC35324100
   37    38     0     0     0
SMALL
USER_CHARGES

@<TRIPOS>ATOM
      1 C1          0.7814    1.3978   -1.1297 C.ar      1 <0>        -0.0059
      2 C2          1.1716    2.0871    0.0037 C.ar      1 <0>        -0.0211
      3 C3          1.5836    1.3971    1.1289 C.ar      1 <0>        -0.0061
      4 C4          1.6068    0.0152    1.1242 C.ar      1 <0>        -0.0851
      5 C5          1.2155   -0.6806   -0.0128 C.ar      1 <0>         0.2205
      6 C6          0.8021    0.0159   -1.1415 C.ar      1 <0>        -0.0829
      7 Br1         0.2678   -0.9257   -2.6919 Br        1 <0>         0.0177
      8 N1          1.2381   -2.0803   -0.0213 N.am      1 <0>        -0.6674
      9 C7          0.1563   -2.7743    0.3846 C.2       1 <0>         0.5128
     10 O1         -0.8671   -2.1895    0.6704 O.2       1 <0>        -0.4941
     11 C8          0.2184   -4.2768    0.4832 C.3       1 <0>        -0.0281
     12 N2         -1.0780   -4.7911    0.9444 N.4       1 <0>        -0.3703
     13 C9         -1.3346   -4.3143    2.3087 C.3       1 <0>        -0.0215
     14 C10        -2.7193   -4.7800    2.7640 C.3       1 <0>        -0.1416
     15 C11        -2.7712   -6.3103    2.7382 C.3       1 <0>        -0.1402
     16 C12        -2.4291   -6.7992    1.3278 C.3       1 <0>        -0.1453
     17 C13        -1.0551   -6.2587    0.9258 C.3       1 <0>        -0.0070
     18 Br2         2.1710   -0.9273    2.6634 Br        1 <0>         0.0146
     19 N3          1.1485    3.5671    0.0123 N.pl3     1 <0>         0.0243
     20 O2          0.7889    4.1718   -0.9709 O.2       1 <0>        -0.1274
     21 O3          1.4894    4.1712    1.0025 O.3       1 <0>        -0.1277
     22 H1          0.4559    1.9398   -2.0053 H         1 <0>         0.1808
     23 H2          1.8880    1.9386    2.0123 H         1 <0>         0.1808
     24 H3          2.0323   -2.5508   -0.3192 H         1 <0>         0.4318
     25 H4          0.4479   -4.6960   -0.4964 H         1 <0>         0.1684
     26 H5          0.9956   -4.5626    1.1919 H         1 <0>         0.1674
     27 H6         -0.5772   -4.7159    2.9819 H         1 <0>         0.1270
     28 H7         -1.2941   -3.2252    2.3261 H         1 <0>         0.1446
     29 H8         -2.9071   -4.4265    3.7778 H         1 <0>         0.1129
     30 H9         -3.4775   -4.3787    2.0915 H         1 <0>         0.0891
     31 H10        -2.0482   -6.7115    3.4484 H         1 <0>         0.0823
     32 H11        -3.7728   -6.6456    3.0072 H         1 <0>         0.0957
     33 H12        -2.4095   -7.8889    1.3151 H         1 <0>         0.1157
     34 H13        -3.1813   -6.4398    0.6256 H         1 <0>         0.0893
     35 H14        -0.8083   -6.6050   -0.0778 H         1 <0>         0.1334
     36 H15        -0.3037   -6.6188    1.6285 H         1 <0>         0.1325
     37 H16        -1.8077   -4.4594    0.3316 H         1 <0>         0.4302
@<TRIPOS>BOND
     1    1    6 ar
     2    1    2 ar
     3    1   22 1
     4    2    3 ar
     5    2   19 1
     6    3    4 ar
     7    3   23 1
     8    4    5 ar
     9    4   18 1
    10    5    6 ar
    11    5    8 1
    12    6    7 1
    13    8    9 am
    14    8   24 1
    15    9   10 2
    16    9   11 1
    17   11   12 1
    18   11   25 1
    19   11   26 1
    20   12   17 1
    21   12   13 1
    22   12   37 1
    23   13   14 1
    24   13   27 1
    25   13   28 1
    26   14   15 1
    27   14   29 1
    28   14   30 1
    29   15   16 1
    30   15   31 1
    31   15   32 1
    32   16   17 1
    33   16   33 1
    34   16   34 1
    35   17   35 1
    36   17   36 1
    37   19   20 2
    38   19   21 1
@<TRIPOS>MOLECULE
ZINC31173546
   55    59     0     0     0
SMALL
USER_CHARGES

@<TRIPOS>ATOM
      1 C1         -1.1356   -0.7769   -0.1258 C.3       1 <0>        -0.1916
      2 C2          0.2091   -0.0632    0.0271 C.3       1 <0>        -0.0294
      3 N1          0.7835   -0.3776    1.3421 N.4       1 <0>        -0.3699
      4 C3          1.0932   -1.8119    1.4109 C.3       1 <0>         0.0486
      5 C4          2.1749   -2.1407    0.4145 C.2       1 <0>         0.3595
      6 N2          2.6142   -3.4206    0.3046 N.am      1 <0>        -0.6224
      7 H1          2.2256   -4.1068    0.8695 H         1 <0>         0.4271
      8 C5          3.5779   -3.7562   -0.5729 C.2       1 <0>         0.5532
      9 O1          3.9610   -4.9102   -0.6600 O.2       1 <0>        -0.4753
     10 C6          4.1460   -2.7374   -1.4027 C.2       1 <0>        -0.2017
     11 C7          5.1878   -2.8478   -2.4167 C.2       1 <0>        -0.0195
     12 C8          5.5682   -1.7318   -3.0843 C.2       1 <0>        -0.1583
     13 S1          4.5378   -0.4588   -2.3806 S.3       1 <0>         0.1974
     14 C9          3.6295   -1.4446   -1.2183 C.2       1 <0>         0.0657
     15 N3          2.6699   -1.1905   -0.3324 N.2       1 <0>        -0.4889
     16 C10         5.8192   -4.1562   -2.7114 C.ar      1 <0>        -0.0600
     17 C11         6.3068   -4.9477   -1.6724 C.ar      1 <0>        -0.0617
     18 C12         6.8932   -6.1650   -1.9528 C.ar      1 <0>        -0.1216
     19 C13         6.9977   -6.6003   -3.2617 C.ar      1 <0>        -0.1039
     20 C14         6.5157   -5.8192   -4.2968 C.ar      1 <0>        -0.1233
     21 C15         5.9226   -4.6025   -4.0282 C.ar      1 <0>        -0.0992
     22 C16        -0.1833   -0.0344    2.3935 C.3       1 <0>        -0.0042
     23 C17        -0.4208    1.4771    2.3943 C.3       1 <0>         0.0232
     24 H2         -0.8331    1.7848    1.4333 H         1 <0>         0.1108
     25 C18        -1.3975    1.8469    3.5187 C.3       1 <0>         0.0337
     26 O2         -1.5861    3.2660    3.4999 O.3       1 <0>        -0.2928
     27 C19        -0.4650    4.0305    3.3939 C.ar      1 <0>         0.0507
     28 C20        -0.5240    5.3753    3.7284 C.ar      1 <0>        -0.1080
     29 C21         0.6051    6.1651    3.6228 C.ar      1 <0>        -0.0991
     30 C22         1.7962    5.6173    3.1838 C.ar      1 <0>        -0.1088
     31 C23         1.8621    4.2778    2.8503 C.ar      1 <0>        -0.1048
     32 C24         0.7329    3.4793    2.9551 C.ar      1 <0>         0.0388
     33 O3          0.8153    2.1599    2.6301 O.3       1 <0>        -0.3168
     34 H3         -1.8409   -0.3838    0.6064 H         1 <0>         0.0825
     35 H4         -1.5237   -0.6092   -1.1305 H         1 <0>         0.1105
     36 H5         -1.0002   -1.8460    0.0376 H         1 <0>         0.0779
     37 H6          0.8894   -0.3981   -0.7560 H         1 <0>         0.1524
     38 H7          0.0607    1.0134   -0.0565 H         1 <0>         0.1340
     39 H8          1.4360   -2.0619    2.4150 H         1 <0>         0.1693
     40 H9          0.1978   -2.3885    1.1787 H         1 <0>         0.1685
     41 H10         6.3165   -1.6363   -3.8572 H         1 <0>         0.2082
     42 H11         6.2260   -4.6087   -0.6502 H         1 <0>         0.1144
     43 H12         7.2715   -6.7789   -1.1488 H         1 <0>         0.1245
     44 H13         7.4577   -7.5536   -3.4764 H         1 <0>         0.1258
     45 H14         6.6001   -6.1642   -5.3167 H         1 <0>         0.1274
     46 H15         5.5430   -3.9954   -4.8367 H         1 <0>         0.1232
     47 H16        -1.1247   -0.5500    2.2038 H         1 <0>         0.1597
     48 H17         0.2100   -0.3408    3.3628 H         1 <0>         0.1484
     49 H18        -2.3523    1.3470    3.3555 H         1 <0>         0.1318
     50 H19        -0.9830    1.5438    4.4802 H         1 <0>         0.0895
     51 H20        -1.4532    5.8057    4.0714 H         1 <0>         0.1419
     52 H21         0.5571    7.2120    3.8839 H         1 <0>         0.1410
     53 H22         2.6766    6.2374    3.1010 H         1 <0>         0.1402
     54 H23         2.7937    3.8524    2.5076 H         1 <0>         0.1374
     55 H24         1.6294    0.1559    1.4759 H         1 <0>         0.4440
@<TRIPOS>BOND
     1    1    2 1
     2    1   34 1
     3    1   35 1
     4    1   36 1
     5    2    3 1
     6    2   37 1
     7    2   38 1
     8    3    4 1
     9    3   22 1
    10    3   55 1
    11    4    5 1
    12    4   39 1
    13    4   40 1
    14    5   15 2
    15    5    6 1
    16    6    7 1
    17    6    8 am
    18    8    9 2
    19    8   10 1
    20   10   14 2
    21   10   11 1
    22   11   12 2
    23   11   16 1
    24   12   13 1
    25   12   41 1
    26   13   14 1
    27   14   15 1
    28   16   21 ar
    29   16   17 ar
    30   17   18 ar
    31   17   42 1
    32   18   19 ar
    33   18   43 1
    34   19   20 ar
    35   19   44 1
    36   20   21 ar
    37   20   45 1
    38   21   46 1
    39   22   23 1
    40   22   47 1
    41   22   48 1
    42   23   24 1
    43   23   33 1
    44   23   25 1
    45   25   26 1
    46   25   49 1
    47   25   50 1
    48   26   27 1
    49   27   32 ar
    50   27   28 ar
    51   28   29 ar
    52   28   51 1
    53   29   30 ar
    54   29   52 1
    55   30   31 ar
    56   30   53 1
    57   31   32 ar
    58   31   54 1
    59   32   33 1
@<TRIPOS>MOLECULE
ZINC63541287
   55    59     0     0     0
SMALL
USER_CHARGES

@<TRIPOS>ATOM
      1 C1         -0.0184    1.5028    0.0103 C.3       1 <0>        -0.1211
      2 C2          0.0021   -0.0041    0.0020 C.ar      1 <0>        -0.0691
      3 C3          0.0057   -0.6887   -1.1989 C.ar      1 <0>        -0.1197
      4 C4          0.0245   -2.0709   -1.2065 C.ar      1 <0>        -0.0926
      5 C5          0.0400   -2.7685   -0.0132 C.ar      1 <0>        -0.0933
      6 C6          0.0373   -2.0839    1.1877 C.ar      1 <0>        -0.0913
      7 C7          0.0229   -0.7016    1.1953 C.ar      1 <0>        -0.1183
      8 C8          0.0595   -4.2753   -0.0215 C.3       1 <0>        -0.0338
      9 S1          1.7773   -4.8578   -0.0342 S.3       1 <0>        -0.2276
     10 C9          1.6277   -6.6656   -0.0432 C.3       1 <0>         0.4105
     11 H1          2.6230   -7.1099   -0.0511 H         1 <0>         0.1551
     12 N1          0.9119   -7.0995    1.1617 N.pl3     1 <0>        -0.7100
     13 C10        -0.4628   -6.9437    1.2156 C.ar      1 <0>         0.3678
     14 C11        -1.1867   -6.9916    0.0100 C.ar      1 <0>        -0.0289
     15 N2         -2.5066   -6.8718    0.0271 N.ar      1 <0>        -0.3502
     16 C12        -3.1303   -6.6936    1.1761 C.ar      1 <0>         0.0105
     17 C13        -2.4152   -6.6317    2.3635 C.ar      1 <0>         0.1326
     18 N3         -1.0986   -6.7574    2.3607 N.ar      1 <0>        -0.4740
     19 C14        -0.4418   -7.1615   -1.2543 C.2       1 <0>         0.5833
     20 O1         -1.0366   -7.3676   -2.2943 O.2       1 <0>        -0.4849
     21 N4          0.9005   -7.0853   -1.2414 N.am      1 <0>        -0.6153
     22 C15         1.6475   -7.4287   -2.4539 C.3       1 <0>         0.1217
     23 C16         1.9828   -8.9215   -2.4408 C.3       1 <0>        -0.1135
     24 C17         2.7512   -9.2747   -3.6881 C.2       1 <0>         0.0742
     25 C18         4.0952   -9.3482   -3.8219 C.ar      1 <0>        -0.1700
     26 C19         5.2014   -9.1284   -2.8825 C.ar      1 <0>        -0.0135
     27 C20         6.4725   -9.2797   -3.3190 C.ar      1 <0>        -0.1493
     28 C21         6.7592   -9.6398   -4.6429 C.ar      1 <0>         0.0529
     29 C22         5.7968   -9.8586   -5.5639 C.ar      1 <0>        -0.2083
     30 C23         4.4245   -9.7282   -5.2142 C.ar      1 <0>         0.3272
     31 N5          3.3268   -9.8837   -5.9140 N.pl3     1 <0>        -0.5839
     32 C24         2.1756   -9.6254   -5.0419 C.3       1 <0>         0.0593
     33 H2          1.0042    1.8801    0.0026 H         1 <0>         0.0752
     34 H3         -0.5455    1.8639   -0.8728 H         1 <0>         0.0699
     35 H4         -0.5286    1.8543    0.9071 H         1 <0>         0.0704
     36 H5         -0.0064   -0.1436   -2.1312 H         1 <0>         0.1271
     37 H6          0.0266   -2.6057   -2.1448 H         1 <0>         0.1214
     38 H7          0.0491   -2.6289    2.1200 H         1 <0>         0.1227
     39 H8          0.0245   -0.1667    2.1335 H         1 <0>         0.1281
     40 H9         -0.4447   -4.6501    0.8693 H         1 <0>         0.0839
     41 H10        -0.4546   -4.6404   -0.9106 H         1 <0>         0.0867
     42 H11         1.3936   -7.4893    1.9079 H         1 <0>         0.4287
     43 H12        -4.2058   -6.5956    1.1925 H         1 <0>         0.1857
     44 H13        -2.9373   -6.4789    3.2965 H         1 <0>         0.1876
     45 H14         1.0417   -7.2002   -3.3308 H         1 <0>         0.1089
     46 H15         2.5701   -6.8494   -2.4886 H         1 <0>         0.1035
     47 H16         2.5886   -9.1501   -1.5639 H         1 <0>         0.1117
     48 H17         1.0602   -9.5008   -2.4061 H         1 <0>         0.1164
     49 H18         5.0033   -8.8496   -1.8581 H         1 <0>         0.1589
     50 H19         7.2880   -9.1184   -2.6295 H         1 <0>         0.1578
     51 H20         7.7925   -9.7462   -4.9385 H         1 <0>         0.1607
     52 H21         6.0705  -10.1339   -6.5717 H         1 <0>         0.1604
     53 H22         1.5520  -10.5161   -4.9658 H         1 <0>         0.1755
     54 H23         1.5928   -8.7901   -5.4302 H         1 <0>         0.1761
     55 H24         3.2831  -10.1318   -6.8507 H         1 <0>         0.4561
@<TRIPOS>BOND
     1    1    2 1
     2    1   33 1
     3    1   34 1
     4    1   35 1
     5    2    7 ar
     6    2    3 ar
     7    3    4 ar
     8    3   36 1
     9    4    5 ar
    10    4   37 1
    11    5    6 ar
    12    5    8 1
    13    6    7 ar
    14    6   38 1
    15    7   39 1
    16    8    9 1
    17    8   40 1
    18    8   41 1
    19    9   10 1
    20   10   11 1
    21   10   21 1
    22   10   12 1
    23   12   13 1
    24   12   42 1
    25   13   18 ar
    26   13   14 ar
    27   14   15 ar
    28   14   19 1
    29   15   16 ar
    30   16   17 ar
    31   16   43 1
    32   17   18 ar
    33   17   44 1
    34   19   20 2
    35   19   21 am
    36   21   22 1
    37   22   23 1
    38   22   45 1
    39   22   46 1
    40   23   24 1
    41   23   47 1
    42   23   48 1
    43   24   32 1
    44   24   25 2
    45   25   30 ar
    46   25   26 ar
    47   26   27 ar
    48   26   49 1
    49   27   28 ar
    50   27   50 1
    51   28   29 ar
    52   28   51 1
    53   29   30 ar
    54   29   52 1
    55   30   31 2
    56   31   32 1
    57   31   55 1
    58   32   53 1
    59   32   54 1
@<TRIPOS>MOLECULE
ZINC05070397
   49    51     0     0     0
SMALL
USER_CHARGES
6-chloro-8-[(2-ethyl-1-piperidyl)methyl]-7-hydroxy-3,4-dimethyl-chromen-2-one
@<TRIPOS>ATOM
      1 C1          1.3218    1.7189   -0.2144 C.3       1 <0>        -0.1545
      2 C2         -0.0146    1.0077    0.0074 C.3       1 <0>        -0.1502
      3 C3         -0.8103    1.7427    1.0881 C.3       1 <0>         0.0334
      4 H1         -0.9544    2.7811    0.7899 H         1 <0>         0.1394
      5 C4         -0.0406    1.6938    2.4099 C.3       1 <0>        -0.1427
      6 C5         -0.8497    2.4129    3.4929 C.3       1 <0>        -0.1369
      7 C6         -2.2249    1.7509    3.6156 C.3       1 <0>        -0.1464
      8 C7         -2.9312    1.7981    2.2588 C.3       1 <0>        -0.0001
      9 C8         -2.8283    1.0014   -0.0249 C.3       1 <0>         0.0537
     10 C9         -4.0839    0.1877    0.1555 C.ar      1 <0>        -0.1900
     11 C10        -5.2716    0.8107    0.5019 C.ar      1 <0>         0.1952
     12 C11        -6.4387    0.0668    0.6707 C.ar      1 <0>        -0.0859
     13 C12        -6.4263   -1.2878    0.4969 C.ar      1 <0>        -0.0083
     14 C13        -5.2346   -1.9329    0.1472 C.ar      1 <0>        -0.1287
     15 C14        -4.0549   -1.1860   -0.0305 C.ar      1 <0>         0.1811
     16 O1         -2.9060   -1.8134   -0.3623 O.3       1 <0>        -0.2802
     17 C15        -2.8598   -3.1429   -0.5401 C.2       1 <0>         0.5157
     18 O2         -1.8020   -3.6645   -0.8440 O.2       1 <0>        -0.4311
     19 C16        -4.0045   -3.9513   -0.3844 C.2       1 <0>        -0.1991
     20 C17        -5.1914   -3.3838   -0.0457 C.2       1 <0>         0.0142
     21 C18        -6.4301   -4.2247    0.1265 C.3       1 <0>        -0.1365
     22 C19        -3.9118   -5.4407   -0.5939 C.3       1 <0>        -0.1074
     23 Cl1        -7.9169    0.8673    1.1039 Cl        1 <0>        -0.0132
     24 O3         -5.2996    2.1565    0.6782 O.3       1 <0>        -0.4801
     25 H2          1.8400    1.2636   -1.0583 H         1 <0>         0.0767
     26 H3          1.1418    2.7732   -0.4244 H         1 <0>         0.0662
     27 H4          1.9356    1.6266    0.6816 H         1 <0>         0.0687
     28 H5         -0.5829    1.0038   -0.9227 H         1 <0>         0.0866
     29 H6          0.1684   -0.0186    0.3257 H         1 <0>         0.0880
     30 H7          0.1158    0.6553    2.7018 H         1 <0>         0.0870
     31 H8          0.9236    2.1874    2.2880 H         1 <0>         0.1146
     32 H9         -0.3254    2.3431    4.4460 H         1 <0>         0.0942
     33 H10        -0.9720    3.4612    3.2204 H         1 <0>         0.0824
     34 H11        -2.1029    0.7133    3.9264 H         1 <0>         0.0837
     35 H12        -2.8210    2.2848    4.3556 H         1 <0>         0.1121
     36 H13        -3.9049    1.3148    2.3393 H         1 <0>         0.1252
     37 H14        -3.0651    2.8363    1.9550 H         1 <0>         0.1348
     38 H15        -3.0900    2.0016   -0.3703 H         1 <0>         0.1446
     39 H16        -2.1855    0.5193   -0.7614 H         1 <0>         0.1459
     40 H17        -7.3330   -1.8593    0.6292 H         1 <0>         0.1666
     41 H18        -6.9524   -4.3018   -0.8271 H         1 <0>         0.0996
     42 H19        -6.1486   -5.2207    0.4681 H         1 <0>         0.0961
     43 H20        -7.0854   -3.7597    0.8631 H         1 <0>         0.0830
     44 H21        -4.1132   -5.6739   -1.6394 H         1 <0>         0.0860
     45 H22        -2.9106   -5.7828   -0.3317 H         1 <0>         0.0835
     46 H23        -4.6444   -5.9428    0.0380 H         1 <0>         0.0849
     47 H24        -5.5005    2.6544   -0.1261 H         1 <0>         0.4152
     48 N1         -2.1136    1.0682    1.2665 N.4       1 <0>        -0.3893
     49 H25        -1.9505    0.1134    1.6070 H         1 <0>         0.4225
@<TRIPOS>BOND
     1    1    2 1
     2    1   25 1
     3    1   26 1
     4    1   27 1
     5    2    3 1
     6    2   28 1
     7    2   29 1
     8    3    4 1
     9    3    5 1
    10    3   48 1
    11    5    6 1
    12    5   30 1
    13    5   31 1
    14    6    7 1
    15    6   32 1
    16    6   33 1
    17    7    8 1
    18    7   34 1
    19    7   35 1
    20    8   36 1
    21    8   37 1
    22    8   48 1
    23    9   10 1
    24    9   38 1
    25    9   39 1
    26    9   48 1
    27   10   15 ar
    28   10   11 ar
    29   11   12 ar
    30   11   24 1
    31   12   13 ar
    32   12   23 1
    33   13   14 ar
    34   13   40 1
    35   14   20 1
    36   14   15 ar
    37   15   16 1
    38   16   17 1
    39   17   18 2
    40   17   19 1
    41   19   20 2
    42   19   22 1
    43   20   21 1
    44   21   41 1
    45   21   42 1
    46   21   43 1
    47   22   44 1
    48   22   45 1
    49   22   46 1
    50   24   47 1
    51   48   49 1
@<TRIPOS>MOLECULE
ZINC19957657
   54    57     0     0     0
SMALL
USER_CHARGES
(1S)-1-tert-butyl-2-[(1-ethylimidazol-2-yl)methyl]-1,3,4,9-tetrahydropyrido[3,4-b]indole
@<TRIPOS>ATOM
      1 C1         -1.7746   -5.2066    1.8039 C.3       1 <0>        -0.1820
      2 C2         -0.8098   -4.7648    0.7017 C.3       1 <0>         0.0770
      3 N1         -1.4149   -5.0195   -0.6079 N.pl3     1 <0>        -0.3914
      4 C3         -1.2255   -6.1278   -1.3885 C.2       1 <0>         0.0219
      5 C4         -1.9642   -5.9521   -2.5007 C.2       1 <0>        -0.0019
      6 N2         -2.5916   -4.7708   -2.3997 N.pl3     1 <0>        -0.4973
      7 C5         -2.2635   -4.2044   -1.2707 C.cat     1 <0>         0.3228
      8 C6         -2.7551   -2.8655   -0.7843 C.3       1 <0>         0.0431
      9 N3         -1.8396   -1.8118   -1.2422 N.3       1 <0>        -0.5187
     10 C7         -1.6803   -1.8506   -2.7027 C.3       1 <0>         0.0412
     11 C8         -0.4519   -1.0229   -3.1049 C.3       1 <0>        -0.0353
     12 C9         -0.5434    0.3137   -2.4127 C.2       1 <0>        -0.1609
     13 C10         0.1747    1.5385   -2.6856 C.ar      1 <0>        -0.1040
     14 C11         1.1462    1.8812   -3.6313 C.ar      1 <0>        -0.0700
     15 C12         1.6178    3.1702   -3.5986 C.ar      1 <0>        -0.1453
     16 C13         1.1612    4.0982   -2.6769 C.ar      1 <0>        -0.0946
     17 C14         0.2011    3.7869   -1.7299 C.ar      1 <0>        -0.1312
     18 C15        -0.2963    2.4855   -1.7390 C.ar      1 <0>         0.0896
     19 N4         -1.2280    1.8571   -0.9628 N.pl3     1 <0>        -0.5946
     20 H1         -1.7313    2.4070   -0.1540 H         1 <0>         0.4487
     21 C16        -1.3703    0.5588   -1.3708 C.2       1 <0>         0.0825
     22 C17        -2.2899   -0.4869   -0.7860 C.3       1 <0>         0.1686
     23 H2         -3.3203   -0.3310   -1.1381 H         1 <0>         0.0694
     24 C18        -2.2354   -0.4232    0.7417 C.3       1 <0>        -0.0584
     25 C19        -2.4227    1.0249    1.1987 C.3       1 <0>        -0.1818
     26 C20        -3.3503   -1.2914    1.3284 C.3       1 <0>        -0.1861
     27 C21        -0.8788   -0.9393    1.2256 C.3       1 <0>        -0.1352
     28 H3         -1.3202   -5.0153    2.7872 H         1 <0>         0.1033
     29 H4         -1.9834   -6.2815    1.6992 H         1 <0>         0.0761
     30 H5         -2.7138   -4.6405    1.7176 H         1 <0>         0.0686
     31 H6         -0.6010   -3.6899    0.8064 H         1 <0>         0.1263
     32 H7          0.1294   -5.3308    0.7880 H         1 <0>         0.1271
     33 H8         -0.6027   -6.9794   -1.1572 H         1 <0>         0.2205
     34 H9         -2.0415   -6.6431   -3.3270 H         1 <0>         0.2224
     35 H10        -3.7617   -2.6766   -1.1857 H         1 <0>         0.0915
     36 H11        -2.7930   -2.8661    0.3150 H         1 <0>         0.1792
     37 H12        -1.5438   -2.8922   -3.0291 H         1 <0>         0.0674
     38 H13        -2.5778   -1.4312   -3.1807 H         1 <0>         0.0536
     39 H14         0.4626   -1.5495   -2.7946 H         1 <0>         0.0775
     40 H15        -0.4435   -0.8856   -4.1963 H         1 <0>         0.0815
     41 H16         1.5089    1.1651   -4.3538 H         1 <0>         0.1261
     42 H17         2.3691    3.4702   -4.3141 H         1 <0>         0.1199
     43 H18         1.5680    5.0984   -2.6982 H         1 <0>         0.1234
     44 H19        -0.1470    4.5195   -1.0167 H         1 <0>         0.1282
     45 H20        -2.3835    1.0707    2.2970 H         1 <0>         0.0765
     46 H21        -3.3980    1.3959    0.8508 H         1 <0>         0.0655
     47 H22        -1.6212    1.6491    0.7768 H         1 <0>         0.0837
     48 H23        -3.3111   -1.2456    2.4267 H         1 <0>         0.0751
     49 H24        -3.2157   -2.3325    0.9998 H         1 <0>         0.0832
     50 H25        -4.3256   -0.9202    0.9805 H         1 <0>         0.0670
     51 H26        -0.8396   -0.8935    2.3239 H         1 <0>         0.0585
     52 H27        -0.0773   -0.3150    0.8038 H         1 <0>         0.0634
     53 H28        -0.7441   -1.9804    0.8970 H         1 <0>         0.0590
     54 H29        -3.2582   -4.4313   -3.2062 H         1 <0>         0.4995
@<TRIPOS>BOND
     1    1    2 1
     2    1   28 1
     3    1   29 1
     4    1   30 1
     5    2    3 1
     6    2   31 1
     7    2   32 1
     8    3    7 1
     9    3    4 1
    10    4    5 2
    11    4   33 1
    12    5    6 1
    13    5   34 1
    14    6    7 2
    15    6   54 1
    16    7    8 1
    17    8    9 1
    18    8   35 1
    19    8   36 1
    20    9   22 1
    21    9   10 1
    22   10   11 1
    23   10   37 1
    24   10   38 1
    25   11   12 1
    26   11   39 1
    27   11   40 1
    28   12   21 2
    29   12   13 1
    30   13   18 ar
    31   13   14 ar
    32   14   15 ar
    33   14   41 1
    34   15   16 ar
    35   15   42 1
    36   16   17 ar
    37   16   43 1
    38   17   18 ar
    39   17   44 1
    40   18   19 1
    41   19   20 1
    42   19   21 1
    43   21   22 1
    44   22   23 1
    45   22   24 1
    46   24   25 1
    47   24   26 1
    48   24   27 1
    49   25   45 1
    50   25   46 1
    51   25   47 1
    52   26   48 1
    53   26   49 1
    54   26   50 1
    55   27   51 1
    56   27   52 1
    57   27   53 1
@<TRIPOS>MOLECULE
ZINC04990326
   50    53     0     0     0
SMALL
USER_CHARGES

@<TRIPOS>ATOM
      1 C1          0.0873    1.7094    0.4173 C.3       1 <0>        -0.1127
      2 C2          0.0889    0.2094    0.2724 C.ar      1 <0>        -0.1289
      3 C3          0.0617   -0.3665   -0.9887 C.ar      1 <0>         0.1770
      4 C4          0.0632   -1.7478   -1.1194 C.ar      1 <0>        -0.2094
      5 C5          0.0914   -2.5496    0.0058 C.ar      1 <0>        -0.0402
      6 C6          0.1180   -1.9782    1.2634 C.ar      1 <0>        -0.2189
      7 C7          0.1233   -0.5969    1.3994 C.ar      1 <0>         0.1515
      8 O1          0.1561   -0.0355    2.6365 O.3       1 <0>        -0.3436
      9 C8          1.4422    0.2920    3.1664 C.3       1 <0>         0.0290
     10 C9          0.1477   -2.8554    2.4884 C.3       1 <0>         0.0577
     11 N1         -1.1774   -2.8558    3.1226 N.4       1 <0>        -0.3779
     12 C10        -1.1067   -3.5823    4.3973 C.3       1 <0>        -0.0062
     13 C11        -2.3830   -3.3192    5.2088 C.3       1 <0>        -0.0682
     14 C12        -3.5638   -3.5622    4.3027 C.2       1 <0>        -0.1565
     15 C13        -4.9576   -3.7464    4.6371 C.ar      1 <0>        -0.1010
     16 C14        -5.6510   -3.7603    5.8515 C.ar      1 <0>        -0.0643
     17 C15        -7.0065   -3.9689    5.7908 C.ar      1 <0>        -0.1363
     18 C16        -7.6691   -4.1580    4.5889 C.ar      1 <0>        -0.0817
     19 C17        -7.0088   -4.1490    3.3726 C.ar      1 <0>        -0.1286
     20 C18        -5.6317   -3.9398    3.4030 C.ar      1 <0>         0.1111
     21 N2         -4.6943   -3.8735    2.4116 N.pl3     1 <0>        -0.5657
     22 H1         -4.8764   -3.9718    1.4640 H         1 <0>         0.4228
     23 C19        -3.4600   -3.6468    2.9564 C.2       1 <0>         0.0140
     24 C20        -2.1476   -3.5000    2.2240 C.3       1 <0>         0.0748
     25 O2          0.0331    0.4214   -2.0956 O.3       1 <0>        -0.3017
     26 C21         0.0061   -0.2399   -3.3620 C.3       1 <0>         0.0205
     27 H2          1.1141    2.0749    0.4236 H         1 <0>         0.0752
     28 H3         -0.4517    2.1546   -0.4190 H         1 <0>         0.0796
     29 H4         -0.4018    1.9836    1.3520 H         1 <0>         0.0771
     30 H5          0.0421   -2.1968   -2.1015 H         1 <0>         0.1447
     31 H6          0.0921   -3.6246   -0.0980 H         1 <0>         0.1409
     32 H7          1.3333    0.6470    4.1912 H         1 <0>         0.1074
     33 H8          2.0765   -0.5944    3.1545 H         1 <0>         0.0524
     34 H9          1.8979    1.0730    2.5578 H         1 <0>         0.0612
     35 H10         0.4130   -3.8727    2.2005 H         1 <0>         0.1377
     36 H11         0.8870   -2.4724    3.1918 H         1 <0>         0.1369
     37 H12        -1.0144   -4.6507    4.2018 H         1 <0>         0.1323
     38 H13        -0.2398   -3.2404    4.9627 H         1 <0>         0.1383
     39 H14        -2.4254   -3.9980    6.0605 H         1 <0>         0.1211
     40 H15        -2.3920   -2.2867    5.5580 H         1 <0>         0.1005
     41 H16        -5.1435   -3.6142    6.7936 H         1 <0>         0.1350
     42 H17        -7.5744   -3.9866    6.7092 H         1 <0>         0.1280
     43 H18        -8.7370   -4.3181    4.6016 H         1 <0>         0.1311
     44 H19        -7.5369   -4.2979    2.4423 H         1 <0>         0.1352
     45 H20        -2.2907   -2.8827    1.3371 H         1 <0>         0.1369
     46 H21        -1.7793   -4.4836    1.9326 H         1 <0>         0.1419
     47 H22        -0.8833   -0.8668   -3.4257 H         1 <0>         0.0624
     48 H23        -0.0151    0.5029   -4.1594 H         1 <0>         0.1124
     49 H24         0.8962   -0.8603   -3.4670 H         1 <0>         0.0639
     50 H25        -1.4644   -1.9044    3.2978 H         1 <0>         0.4315
@<TRIPOS>BOND
     1    1    2 1
     2    1   27 1
     3    1   28 1
     4    1   29 1
     5    2    7 ar
     6    2    3 ar
     7    3    4 ar
     8    3   25 1
     9    4    5 ar
    10    4   30 1
    11    5    6 ar
    12    5   31 1
    13    6    7 ar
    14    6   10 1
    15    7    8 1
    16    8    9 1
    17    9   32 1
    18    9   33 1
    19    9   34 1
    20   10   11 1
    21   10   35 1
    22   10   36 1
    23   11   24 1
    24   11   12 1
    25   11   50 1
    26   12   13 1
    27   12   37 1
    28   12   38 1
    29   13   14 1
    30   13   39 1
    31   13   40 1
    32   14   23 2
    33   14   15 1
    34   15   20 ar
    35   15   16 ar
    36   16   17 ar
    37   16   41 1
    38   17   18 ar
    39   17   42 1
    40   18   19 ar
    41   18   43 1
    42   19   20 ar
    43   19   44 1
    44   20   21 1
    45   21   22 1
    46   21   23 1
    47   23   24 1
    48   24   45 1
    49   24   46 1
    50   25   26 1
    51   26   47 1
    52   26   48 1
    53   26   49 1
@<TRIPOS>MOLECULE
ZINC49185939
   33    34     0     0     0
SMALL
USER_CHARGES

@<TRIPOS>ATOM
      1 C1         -0.3948    1.4702    0.0553 C.3       1 <0>        -0.1034
      2 C2         -0.1611   -0.0182    0.0215 C.2       1 <0>         0.0466
      3 C3         -0.1810   -0.8210   -1.0683 C.2       1 <0>        -0.0974
      4 N1          0.0765   -2.0596   -0.6336 N.2       1 <0>        -0.2490
      5 N2          0.2455   -2.0307    0.6409 N.2       1 <0>        -0.0216
      6 N3          0.1187   -0.8271    1.0797 N.pl3     1 <0>        -0.2397
      7 C4          0.2434   -0.4206    2.4165 C.ar      1 <0>         0.1327
      8 C5          1.0310    0.6759    2.7393 C.ar      1 <0>        -0.0866
      9 C6          1.1523    1.0742    4.0561 C.ar      1 <0>        -0.0584
     10 C7          0.4894    0.3814    5.0540 C.ar      1 <0>        -0.0664
     11 C8         -0.2963   -0.7117    4.7357 C.ar      1 <0>        -0.0479
     12 C9         -0.4256   -1.1111    3.4189 C.ar      1 <0>        -0.0676
     13 Br1        -1.5059   -2.6008    2.9832 Br        1 <0>         0.0057
     14 Br2         0.6586    0.9296    6.8558 Br        1 <0>         0.0007
     15 C10        -0.4426   -0.4017   -2.4920 C.3       1 <0>         0.1362
     16 H1         -0.8762    0.5983   -2.5024 H         1 <0>         0.1524
     17 C11         0.8738   -0.3948   -3.2717 C.3       1 <0>        -0.1798
     18 N4         -1.3771   -1.3471   -3.1171 N.4       1 <0>        -0.5072
     19 C12        -1.7253   -0.8736   -4.4634 C.3       1 <0>        -0.0512
     20 H2          0.5542    1.9901   -0.0763 H         1 <0>         0.0997
     21 H3         -1.0764    1.7493   -0.7482 H         1 <0>         0.0967
     22 H4         -0.8311    1.7478    1.0148 H         1 <0>         0.0899
     23 H5          1.5490    1.2170    1.9613 H         1 <0>         0.1540
     24 H6          1.7653    1.9271    4.3074 H         1 <0>         0.1620
     25 H7         -0.8125   -1.2508    5.5163 H         1 <0>         0.1630
     26 H8          0.6846   -0.0915   -4.3014 H         1 <0>         0.0917
     27 H9          1.5672    0.3067   -2.8079 H         1 <0>         0.1060
     28 H10         1.3074   -1.3948   -3.2613 H         1 <0>         0.0885
     29 H11        -0.9432   -2.2558   -3.1819 H         1 <0>         0.4359
     30 H12        -2.4187   -1.5752   -4.9273 H         1 <0>         0.1302
     31 H13        -2.1941    0.1079   -4.3934 H         1 <0>         0.1254
     32 H14        -0.8215   -0.8023   -5.0685 H         1 <0>         0.1276
     33 H15        -2.2137   -1.4132   -2.5570 H         1 <0>         0.4315
@<TRIPOS>BOND
     1    1    2 1
     2    1   20 1
     3    1   21 1
     4    1   22 1
     5    2    6 1
     6    2    3 2
     7    3    4 1
     8    3   15 1
     9    4    5 2
    10    5    6 1
    11    6    7 1
    12    7   12 ar
    13    7    8 ar
    14    8    9 ar
    15    8   23 1
    16    9   10 ar
    17    9   24 1
    18   10   11 ar
    19   10   14 1
    20   11   12 ar
    21   11   25 1
    22   12   13 1
    23   15   16 1
    24   15   17 1
    25   15   18 1
    26   17   26 1
    27   17   27 1
    28   17   28 1
    29   18   19 1
    30   18   29 1
    31   18   33 1
    32   19   30 1
    33   19   31 1
    34   19   32 1
@<TRIPOS>MOLECULE
ZINC62871975
   39    41     0     0     0
SMALL
USER_CHARGES

@<TRIPOS>ATOM
      1 C1         -0.0187    1.5258    0.0104 C.3       1 <0>        -0.1719
      2 C2          0.0021   -0.0041    0.0020 C.3       1 <0>        -0.1111
      3 C3          0.7182   -0.4975   -1.2568 C.3       1 <0>         0.0162
      4 C4         -0.0250    0.0048   -2.4980 C.3       1 <0>        -0.1282
      5 C5          0.6535   -0.5587   -3.7500 C.3       1 <0>        -0.1526
      6 C6          0.6771   -2.0864   -3.6668 C.3       1 <0>        -0.0115
      7 N1          1.4239   -2.5037   -2.4740 N.4       1 <0>        -0.5099
      8 C7          0.7394   -2.0275   -1.2660 C.3       1 <0>        -0.0058
      9 C8          2.1315    0.0255   -1.2694 C.2       1 <0>         0.2658
     10 N2          2.4786    1.2808   -1.2622 N.2       1 <0>        -0.4914
     11 C9          3.8193    1.3881   -1.2772 C.2       1 <0>         0.3129
     12 N3          4.3355    0.1839   -1.2942 N.2       1 <0>        -0.3030
     13 O1          3.2425   -0.7222   -1.2840 O.3       1 <0>        -0.1393
     14 C10         4.5862    2.6587   -1.2754 C.ar      1 <0>        -0.0458
     15 C11         3.9156    3.8798   -1.2511 C.ar      1 <0>        -0.0540
     16 C12         4.6332    5.0585   -1.2495 C.ar      1 <0>        -0.0952
     17 C13         6.0169    5.0291   -1.2725 C.ar      1 <0>        -0.0582
     18 C14         6.6877    3.8186   -1.2971 C.ar      1 <0>        -0.0933
     19 C15         5.9793    2.6343   -1.2921 C.ar      1 <0>        -0.0651
     20 Br1         6.9940    6.6481   -1.2708 Br        1 <0>        -0.0222
     21 H1          1.0039    1.9031    0.0027 H         1 <0>         0.0831
     22 H2         -0.5459    1.8868   -0.8726 H         1 <0>         0.0662
     23 H3         -0.5289    1.8773    0.9072 H         1 <0>         0.0698
     24 H4          0.5293   -0.3651    0.8851 H         1 <0>         0.0819
     25 H5         -1.0205   -0.3814    0.0098 H         1 <0>         0.1003
     26 H6         -1.0615   -0.3307   -2.4629 H         1 <0>         0.1102
     27 H7          0.0061    1.0940   -2.5255 H         1 <0>         0.1152
     28 H8          0.0971   -0.2509   -4.6353 H         1 <0>         0.1254
     29 H9          1.6744   -0.1817   -3.8116 H         1 <0>         0.0804
     30 H10        -0.3442   -2.4623   -3.6055 H         1 <0>         0.1399
     31 H11         1.1594   -2.4909   -4.5568 H         1 <0>         0.1383
     32 H12         1.4834   -3.5106   -2.4509 H         1 <0>         0.4380
     33 H13         1.2677   -2.3884   -0.3835 H         1 <0>         0.1445
     34 H14        -0.2832   -2.4047   -1.2559 H         1 <0>         0.1571
     35 H15         2.8360    3.9038   -1.2339 H         1 <0>         0.1484
     36 H16         4.1143    6.0055   -1.2307 H         1 <0>         0.1485
     37 H17         7.7674    3.8008   -1.3156 H         1 <0>         0.1482
     38 H18         6.5037    1.6903   -1.3065 H         1 <0>         0.1421
     39 H19         2.3542   -2.1145   -2.5077 H         1 <0>         0.4262
@<TRIPOS>BOND
     1    1    2 1
     2    1   21 1
     3    1   22 1
     4    1   23 1
     5    2    3 1
     6    2   24 1
     7    2   25 1
     8    3    8 1
     9    3    4 1
    10    3    9 1
    11    4    5 1
    12    4   26 1
    13    4   27 1
    14    5    6 1
    15    5   28 1
    16    5   29 1
    17    6    7 1
    18    6   30 1
    19    6   31 1
    20    7    8 1
    21    7   32 1
    22    7   39 1
    23    8   33 1
    24    8   34 1
    25    9   13 1
    26    9   10 2
    27   10   11 1
    28   11   12 2
    29   11   14 1
    30   12   13 1
    31   14   19 ar
    32   14   15 ar
    33   15   16 ar
    34   15   35 1
    35   16   17 ar
    36   16   36 1
    37   17   18 ar
    38   17   20 1
    39   18   19 ar
    40   18   37 1
    41   19   38 1
@<TRIPOS>MOLECULE
ZINC04097970
   50    54     0     0     0
SMALL
USER_CHARGES
methyl ethylBLAHcarboxylate
@<TRIPOS>ATOM
      1 C1         -2.3191    1.5729    2.5760 C.3       1 <0>        -0.1642
      2 C2         -1.1362    2.5369    2.4640 C.3       1 <0>        -0.1114
      3 C3         -1.2147    3.2880    1.1334 C.3       1 <0>        -0.0350
      4 C4         -1.2915    2.2338    0.0198 C.3       1 <0>        -0.0521
      5 C5         -0.0171    1.4078    0.0098 C.2       1 <0>        -0.2552
      6 C6          1.1003    2.1760    0.0032 C.2       1 <0>         0.2541
      7 C7          1.0103    3.6813   -0.0022 C.3       1 <0>        -0.0139
      8 C8          0.0111    4.1711    1.0563 C.3       1 <0>         0.0671
      9 H1          0.4985    4.2244    2.0299 H         1 <0>         0.1481
     10 C9         -0.4390    5.4315   -0.8858 C.3       1 <0>        -0.0056
     11 C10         0.4477    4.2353   -1.3191 C.3       1 <0>        -0.1287
     12 C11        -1.3782    6.1801    1.2793 C.3       1 <0>         0.0367
     13 C12        -2.6207    5.3313    1.1923 C.2       1 <0>        -0.1851
     14 C13        -2.5106    4.0389    1.1284 C.2       1 <0>        -0.1083
     15 C14         2.4071    4.1344    0.2430 C.ar      1 <0>        -0.1779
     16 C15         2.9472    5.3867    0.4446 C.ar      1 <0>        -0.0670
     17 C16         4.3213    5.4602    0.6424 C.ar      1 <0>        -0.1320
     18 C17         5.1111    4.3284    0.6367 C.ar      1 <0>        -0.0632
     19 C18         4.5780    3.0646    0.4376 C.ar      1 <0>        -0.1258
     20 C19         3.1998    2.9752    0.2412 C.ar      1 <0>         0.1593
     21 N1          2.4149    1.8481    0.0411 N.pl3     1 <0>        -0.6146
     22 C20         0.0021   -0.0041    0.0020 C.2       1 <0>         0.5255
     23 O1          1.0642   -0.5982   -0.0113 O.2       1 <0>        -0.5291
     24 O2         -1.1575   -0.6948    0.0094 O.3       1 <0>        -0.3494
     25 C21        -1.0634   -2.1207    0.0008 C.3       1 <0>         0.0345
     26 H2         -2.2632    1.0378    3.5239 H         1 <0>         0.0655
     27 H3         -3.2517    2.1354    2.5307 H         1 <0>         0.0621
     28 H4         -2.2851    0.8589    1.7531 H         1 <0>         0.0740
     29 H5         -0.2036    1.9744    2.5093 H         1 <0>         0.0749
     30 H6         -1.1702    3.2509    3.2869 H         1 <0>         0.0718
     31 H7         -1.4098    2.7289   -0.9440 H         1 <0>         0.0820
     32 H8         -2.1455    1.5800    0.1970 H         1 <0>         0.1141
     33 H9         -0.0916    6.3488   -1.3612 H         1 <0>         0.1389
     34 H10        -1.4798    5.2429   -1.1492 H         1 <0>         0.1439
     35 H11         1.2566    4.5754   -1.9657 H         1 <0>         0.1164
     36 H12        -0.1531    3.4793   -1.8246 H         1 <0>         0.1199
     37 H13        -1.1018    6.3125    2.3253 H         1 <0>         0.1364
     38 H14        -1.5719    7.1540    0.8297 H         1 <0>         0.1416
     39 H15        -3.5961    5.7949    1.1827 H         1 <0>         0.1599
     40 H16        -3.4218    3.4623    1.0675 H         1 <0>         0.1436
     41 H17         2.3295    6.2726    0.4484 H         1 <0>         0.1235
     42 H18         4.7809    6.4241    0.8037 H         1 <0>         0.1374
     43 H19         6.1750    4.4303    0.7922 H         1 <0>         0.1401
     44 H20         5.2042    2.1847    0.4351 H         1 <0>         0.1450
     45 H21         2.7605    0.9472   -0.0578 H         1 <0>         0.4400
     46 H22        -0.5183   -2.4541    0.8839 H         1 <0>         0.0625
     47 H23        -2.0648   -2.5509    0.0081 H         1 <0>         0.1065
     48 H24        -0.5353   -2.4445   -0.8960 H         1 <0>         0.0628
     49 N2         -0.2230    5.5252    0.5690 N.4       1 <0>        -0.3971
     50 H25         0.6161    6.0908    0.7424 H         1 <0>         0.4274
@<TRIPOS>BOND
     1    1    2 1
     2    1   26 1
     3    1   27 1
     4    1   28 1
     5    2    3 1
     6    2   29 1
     7    2   30 1
     8    3    8 1
     9    3   14 1
    10    3    4 1
    11    4    5 1
    12    4   31 1
    13    4   32 1
    14    5    6 2
    15    5   22 1
    16    6   21 1
    17    6    7 1
    18    7   11 1
    19    7    8 1
    20    7   15 1
    21    8    9 1
    22    8   49 1
    23   10   11 1
    24   10   33 1
    25   10   34 1
    26   10   49 1
    27   11   35 1
    28   11   36 1
    29   12   13 1
    30   12   37 1
    31   12   38 1
    32   12   49 1
    33   13   14 2
    34   13   39 1
    35   14   40 1
    36   15   20 ar
    37   15   16 ar
    38   16   17 ar
    39   16   41 1
    40   17   18 ar
    41   17   42 1
    42   18   19 ar
    43   18   43 1
    44   19   20 ar
    45   19   44 1
    46   20   21 1
    47   21   45 1
    48   22   23 2
    49   22   24 1
    50   24   25 1
    51   25   46 1
    52   25   47 1
    53   25   48 1
    54   49   50 1
@<TRIPOS>MOLECULE
ZINC12772878
   48    51     0     0     0
SMALL
USER_CHARGES
2-[[(2R)-2-phenylpyrrolidin-1-yl]methyl]-5-(p-tolyl)-4H-1,2,4-triazole-3-thione
@<TRIPOS>ATOM
      1 C1         -0.0127    1.0858    0.0080 C.3       1 <0>        -0.1309
      2 C2         -0.7181    1.5718    1.2479 C.ar      1 <0>        -0.0340
      3 C3         -2.0842    1.7885    1.2229 C.ar      1 <0>        -0.1172
      4 C4         -2.7366    2.2288    2.3562 C.ar      1 <0>        -0.0732
      5 C5         -2.0140    2.4657    3.5258 C.ar      1 <0>        -0.0820
      6 C6         -0.6358    2.2503    3.5430 C.ar      1 <0>        -0.0517
      7 C7          0.0041    1.8049    2.4046 C.ar      1 <0>        -0.1214
      8 C8         -2.7065    2.9438    4.7430 C.2       1 <0>         0.3746
      9 N1         -4.0599    3.1942    4.8551 N.pl3     1 <0>        -0.5896
     10 H1         -4.7178    3.0878    4.1503 H         1 <0>         0.4605
     11 C9         -4.3097    3.6126    6.1119 C.2       1 <0>         0.4639
     12 S1         -5.8385    4.0490    6.7467 S.2       1 <0>        -0.4962
     13 N2         -3.1373    3.6258    6.7788 N.pl3     1 <0>        -0.4246
     14 N3         -2.1423    3.1940    5.8911 N.2       1 <0>        -0.2852
     15 C10        -2.9408    4.0150    8.1774 C.3       1 <0>         0.2770
     16 C11        -1.9545    1.9051    8.8556 C.3       1 <0>        -0.0171
     17 C12        -1.3066    1.6941   10.2402 C.3       1 <0>        -0.1376
     18 C13        -2.4497    2.0654   11.2212 C.3       1 <0>        -0.1308
     19 C14        -3.1480    3.2226   10.4642 C.3       1 <0>         0.0841
     20 H2         -2.6140    4.1589   10.6264 H         1 <0>         0.1528
     21 C15        -4.5819    3.3510   10.9098 C.ar      1 <0>        -0.1411
     22 C16        -5.5265    2.4428   10.4696 C.ar      1 <0>        -0.1119
     23 C17        -6.8407    2.5575   10.8825 C.ar      1 <0>        -0.0963
     24 C18        -7.2125    3.5870   11.7269 C.ar      1 <0>        -0.0884
     25 C19        -6.2691    4.4986   12.1625 C.ar      1 <0>        -0.1043
     26 C20        -4.9537    4.3805   11.7541 C.ar      1 <0>        -0.0855
     27 H3          0.0021   -0.0041    0.0020 H         1 <0>         0.0843
     28 H4          1.0099    1.4631    0.0003 H         1 <0>         0.0772
     29 H5         -0.5399    1.4469   -0.8751 H         1 <0>         0.0773
     30 H6         -2.6419    1.6087    0.3157 H         1 <0>         0.1411
     31 H7         -3.8038    2.3937    2.3367 H         1 <0>         0.1282
     32 H8         -0.0708    2.4323    4.4453 H         1 <0>         0.1385
     33 H9          1.0711    1.6381    2.4165 H         1 <0>         0.1406
     34 H10        -1.9427    4.4353    8.3008 H         1 <0>         0.1714
     35 H11        -3.6859    4.7604    8.4552 H         1 <0>         0.1752
     36 H12        -2.3162    0.9533    8.4665 H         1 <0>         0.1254
     37 H13        -1.2288    2.3358    8.1657 H         1 <0>         0.1383
     38 H14        -1.0086    0.6539   10.3718 H         1 <0>         0.1158
     39 H15        -0.4539    2.3600   10.3723 H         1 <0>         0.1039
     40 H16        -3.1298    1.2257   11.3641 H         1 <0>         0.1017
     41 H17        -2.0494    2.4078   12.1755 H         1 <0>         0.1243
     42 H18        -5.2368    1.6411    9.8064 H         1 <0>         0.1122
     43 H19        -7.5777    1.8451   10.5425 H         1 <0>         0.1342
     44 H20        -8.2401    3.6788   12.0465 H         1 <0>         0.1354
     45 H21        -6.5596    5.3028   12.8222 H         1 <0>         0.1369
     46 H22        -4.2166    5.0927   12.0945 H         1 <0>         0.1339
     47 N4         -3.0933    2.8182    9.0452 N.4       1 <0>        -0.4181
     48 H23        -3.9631    2.3325    8.7966 H         1 <0>         0.4281
@<TRIPOS>BOND
     1    1    2 1
     2    1   27 1
     3    1   28 1
     4    1   29 1
     5    2    7 ar
     6    2    3 ar
     7    3    4 ar
     8    3   30 1
     9    4    5 ar
    10    4   31 1
    11    5    6 ar
    12    5    8 1
    13    6    7 ar
    14    6   32 1
    15    7   33 1
    16    8   14 2
    17    8    9 1
    18    9   10 1
    19    9   11 1
    20   11   12 2
    21   11   13 1
    22   13   14 1
    23   13   15 1
    24   15   34 1
    25   15   35 1
    26   15   47 1
    27   16   17 1
    28   16   36 1
    29   16   37 1
    30   16   47 1
    31   17   18 1
    32   17   38 1
    33   17   39 1
    34   18   19 1
    35   18   40 1
    36   18   41 1
    37   19   20 1
    38   19   21 1
    39   19   47 1
    40   21   26 ar
    41   21   22 ar
    42   22   23 ar
    43   22   42 1
    44   23   24 ar
    45   23   43 1
    46   24   25 ar
    47   24   44 1
    48   25   26 ar
    49   25   45 1
    50   26   46 1
    51   47   48 1
@<TRIPOS>MOLECULE
ZINC35791268
   51    54     0     0     0
SMALL
USER_CHARGES

@<TRIPOS>ATOM
      1 C1          1.4419    1.6547    2.9701 C.3       1 <0>         0.0195
      2 O1          1.8318    0.2852    3.0904 O.3       1 <0>        -0.3007
      3 C2          1.0497   -0.6364    2.4673 C.ar      1 <0>         0.1201
      4 C3         -0.0650   -0.2308    1.7511 C.ar      1 <0>        -0.1687
      5 C4         -0.8587   -1.1689    1.1179 C.ar      1 <0>        -0.0747
      6 C5         -0.5434   -2.5127    1.1976 C.ar      1 <0>        -0.1180
      7 C6          0.5671   -2.9241    1.9108 C.ar      1 <0>        -0.1438
      8 C7          1.3703   -1.9884    2.5427 C.ar      1 <0>         0.0859
      9 O2          2.4665   -2.3910    3.2398 O.3       1 <0>        -0.4916
     10 C8          0.9074   -4.3897    1.9960 C.3       1 <0>         0.0394
     11 N1          2.0580   -4.6763    1.1289 N.4       1 <0>        -0.3851
     12 C9          1.7006   -4.3917   -0.2628 C.3       1 <0>        -0.0160
     13 C10         2.8896   -4.6114   -1.1898 C.3       1 <0>        -0.1593
     14 C11         4.1864   -4.2384   -0.4659 C.3       1 <0>         0.0815
     15 N2          4.6853   -5.4154    0.2546 N.pl3     1 <0>        -0.4537
     16 C12         5.9678   -5.8732    0.2656 C.2       1 <0>         0.0328
     17 C13         6.0194   -6.9634    1.0584 C.2       1 <0>        -0.1946
     18 C14         4.7185   -7.1898    1.5505 C.2       1 <0>        -0.1174
     19 C15         3.9210   -6.2327    1.0378 C.2       1 <0>        -0.0637
     20 C16         2.4370   -6.0886    1.2728 C.3       1 <0>         0.1725
     21 H1          1.8930   -6.6876    0.5424 H         1 <0>         0.1490
     22 C17         2.0996   -6.5609    2.6635 C.ar      1 <0>        -0.1076
     23 C18         2.6554   -5.9303    3.7613 C.ar      1 <0>        -0.1164
     24 C19         2.3469   -6.3624    5.0376 C.ar      1 <0>        -0.0785
     25 C20         1.4826   -7.4258    5.2177 C.ar      1 <0>        -0.1234
     26 C21         0.9254   -8.0579    4.1192 C.ar      1 <0>         0.1155
     27 C22         1.2305   -7.6203    2.8413 C.ar      1 <0>        -0.1246
     28 F1          0.0808   -9.0978    4.2941 F         1 <0>        -0.1239
     29 H2          0.4441    1.7865    3.3885 H         1 <0>         0.0630
     30 H3          2.1490    2.2828    3.5121 H         1 <0>         0.1117
     31 H4          1.4353    1.9396    1.9180 H         1 <0>         0.0622
     32 H5         -0.3139    0.8182    1.6879 H         1 <0>         0.1457
     33 H6         -1.7273   -0.8515    0.5600 H         1 <0>         0.1436
     34 H7         -1.1662   -3.2426    0.7018 H         1 <0>         0.1403
     35 H8          2.2786   -2.6528    4.1515 H         1 <0>         0.3979
     36 H9          1.1559   -4.6457    3.0259 H         1 <0>         0.1458
     37 H10         0.0513   -4.9810    1.6710 H         1 <0>         0.1408
     38 H11         0.8855   -5.0494   -0.5645 H         1 <0>         0.1372
     39 H12         1.3713   -3.3557   -0.3428 H         1 <0>         0.1364
     40 H13         2.9288   -5.6595   -1.4868 H         1 <0>         0.1053
     41 H14         2.7776   -3.9882   -2.0770 H         1 <0>         0.1296
     42 H15         4.9301   -3.9137   -1.1936 H         1 <0>         0.1249
     43 H16         3.9904   -3.4331    0.2421 H         1 <0>         0.0839
     44 H17         6.7999   -5.4382   -0.2679 H         1 <0>         0.1761
     45 H18         6.8969   -7.5542    1.2762 H         1 <0>         0.1504
     46 H19         4.4163   -7.9845    2.2164 H         1 <0>         0.1449
     47 H20         3.3315   -5.0997    3.6216 H         1 <0>         0.1353
     48 H21         2.7817   -5.8691    5.8943 H         1 <0>         0.1480
     49 H22         1.2422   -7.7637    6.2149 H         1 <0>         0.1498
     50 H23         0.7930   -8.1098    1.9838 H         1 <0>         0.1475
     51 H24         2.8349   -4.0921    1.3995 H         1 <0>         0.4252
@<TRIPOS>BOND
     1    1    2 1
     2    1   29 1
     3    1   30 1
     4    1   31 1
     5    2    3 1
     6    3    8 ar
     7    3    4 ar
     8    4    5 ar
     9    4   32 1
    10    5    6 ar
    11    5   33 1
    12    6    7 ar
    13    6   34 1
    14    7    8 ar
    15    7   10 1
    16    8    9 1
    17    9   35 1
    18   10   11 1
    19   10   36 1
    20   10   37 1
    21   11   20 1
    22   11   12 1
    23   11   51 1
    24   12   13 1
    25   12   38 1
    26   12   39 1
    27   13   14 1
    28   13   40 1
    29   13   41 1
    30   14   15 1
    31   14   42 1
    32   14   43 1
    33   15   19 1
    34   15   16 1
    35   16   17 2
    36   16   44 1
    37   17   18 1
    38   17   45 1
    39   18   19 2
    40   18   46 1
    41   19   20 1
    42   20   21 1
    43   20   22 1
    44   22   27 ar
    45   22   23 ar
    46   23   24 ar
    47   23   47 1
    48   24   25 ar
    49   24   48 1
    50   25   26 ar
    51   25   49 1
    52   26   27 ar
    53   26   28 1
    54   27   50 1
@<TRIPOS>MOLECULE
ZINC43631720
   51    55     0     0     0
SMALL
USER_CHARGES

@<TRIPOS>ATOM
      1 C1          2.8251    0.3097    0.7356 C.3       1 <0>         0.0231
      2 O1          1.8966   -0.7474    0.4856 O.3       1 <0>        -0.3049
      3 C2          1.5644   -0.9830   -0.8105 C.ar      1 <0>         0.1621
      4 C3          2.1235   -0.2180   -1.8216 C.ar      1 <0>        -0.2071
      5 C4          1.7848   -0.4585   -3.1396 C.ar      1 <0>        -0.0571
      6 C5          0.8876   -1.4628   -3.4577 C.ar      1 <0>        -0.1556
      7 C6          0.3234   -2.2322   -2.4604 C.ar      1 <0>        -0.0602
      8 C7          0.6619   -2.0016   -1.1292 C.ar      1 <0>        -0.0789
      9 C8          0.0625   -2.8295   -0.0537 C.2       1 <0>         0.1728
     10 C9         -0.0349   -4.2267   -0.0448 C.2       1 <0>        -0.2856
     11 C10        -0.6473   -4.5948    1.1099 C.2       1 <0>         0.0908
     12 N1         -0.9240   -3.4838    1.8083 N.pl3     1 <0>        -0.4415
     13 H1         -1.3583   -3.4485    2.6748 H         1 <0>         0.4509
     14 N2         -0.4690   -2.3815    1.0678 N.2       1 <0>        -0.2401
     15 C11        -0.9326   -6.0343    1.4627 C.3       1 <0>        -0.0817
     16 C12        -0.7794   -6.8669    0.1817 C.3       1 <0>        -0.0045
     17 N3          0.4981   -6.5460   -0.4678 N.4       1 <0>        -0.3853
     18 C13         0.4336   -5.2114   -1.0858 C.3       1 <0>         0.0912
     19 C14         0.7830   -7.5484   -1.5032 C.3       1 <0>        -0.0035
     20 C15         0.9929   -8.9144   -0.8466 C.3       1 <0>        -0.1200
     21 H2          0.1410   -9.1705   -0.2168 H         1 <0>         0.1018
     22 C16         2.3029   -8.9260   -0.0213 C.3       1 <0>        -0.1326
     23 C17         3.1644  -10.0313   -0.7111 C.3       1 <0>        -0.0781
     24 H3          4.0085  -10.4138   -0.1372 H         1 <0>         0.1100
     25 C18         2.0444  -11.0668   -1.0935 C.3       1 <0>        -0.1210
     26 C19         1.2250  -10.0148   -1.9305 C.3       1 <0>        -0.0608
     27 H4          0.3364  -10.3811   -2.4446 H         1 <0>         0.1148
     28 C20         2.3500   -9.4464   -2.8042 C.2       1 <0>        -0.1868
     29 C21         3.4896   -9.4443   -2.0901 C.2       1 <0>        -0.1546
     30 H5          3.7649    0.0957    0.2266 H         1 <0>         0.0592
     31 H6          2.4156    1.2486    0.3629 H         1 <0>         0.0614
     32 H7          3.0030    0.3910    1.8079 H         1 <0>         0.1045
     33 H8          2.8243    0.5672   -1.5794 H         1 <0>         0.1371
     34 H9          2.2221    0.1403   -3.9249 H         1 <0>         0.1338
     35 H10         0.6276   -1.6450   -4.4900 H         1 <0>         0.1336
     36 H11        -0.3768   -3.0150   -2.7123 H         1 <0>         0.1291
     37 H12        -0.2221   -6.3784    2.2144 H         1 <0>         0.1145
     38 H13        -1.9494   -6.1269    1.8443 H         1 <0>         0.1308
     39 H14        -0.8019   -7.9272    0.4336 H         1 <0>         0.1437
     40 H15        -1.5996   -6.6392   -0.4990 H         1 <0>         0.1368
     41 H16        -0.2688   -5.2264   -1.9192 H         1 <0>         0.1340
     42 H17         1.4224   -4.9244   -1.4437 H         1 <0>         0.1362
     43 H18        -0.0565   -7.6036   -2.1962 H         1 <0>         0.1345
     44 H19         1.6843   -7.2640   -2.0462 H         1 <0>         0.1365
     45 H20         2.8018   -7.9587   -0.0806 H         1 <0>         0.0684
     46 H21         2.0997   -9.1905    1.0164 H         1 <0>         0.0856
     47 H22         2.4233  -11.8844   -1.7066 H         1 <0>         0.0866
     48 H23         1.4935  -11.4260   -0.2242 H         1 <0>         0.0812
     49 H24         2.2449   -9.0969   -3.8207 H         1 <0>         0.1344
     50 H25         4.4611   -9.1068   -2.4197 H         1 <0>         0.1375
     51 H26         1.2359   -6.5604    0.2203 H         1 <0>         0.4227
@<TRIPOS>BOND
     1    1    2 1
     2    1   30 1
     3    1   31 1
     4    1   32 1
     5    2    3 1
     6    3    8 ar
     7    3    4 ar
     8    4    5 ar
     9    4   33 1
    10    5    6 ar
    11    5   34 1
    12    6    7 ar
    13    6   35 1
    14    7    8 ar
    15    7   36 1
    16    8    9 1
    17    9   14 2
    18    9   10 1
    19   10   18 1
    20   10   11 2
    21   11   12 1
    22   11   15 1
    23   12   13 1
    24   12   14 1
    25   15   16 1
    26   15   37 1
    27   15   38 1
    28   16   17 1
    29   16   39 1
    30   16   40 1
    31   17   18 1
    32   17   19 1
    33   17   51 1
    34   18   41 1
    35   18   42 1
    36   19   20 1
    37   19   43 1
    38   19   44 1
    39   20   21 1
    40   20   26 1
    41   20   22 1
    42   22   23 1
    43   22   45 1
    44   22   46 1
    45   23   24 1
    46   23   29 1
    47   23   25 1
    48   25   26 1
    49   25   47 1
    50   25   48 1
    51   26   27 1
    52   26   28 1
    53   28   29 2
    54   28   49 1
    55   29   50 1
@<TRIPOS>MOLECULE
ZINC63385449
   56    60     0     0     0
SMALL
USER_CHARGES

@<TRIPOS>ATOM
      1 C1         -0.0187    1.5258    0.0104 C.3       1 <0>        -0.1555
      2 C2          0.0021   -0.0041    0.0020 C.3       1 <0>        -0.1241
      3 C3         -1.4333   -0.5336    0.0129 C.3       1 <0>        -0.1172
      4 C4         -1.4126   -2.0635    0.0045 C.3       1 <0>        -0.1360
      5 C5         -2.8479   -2.5931    0.0153 C.3       1 <0>         0.1068
      6 N1         -2.8281   -4.0579    0.0073 N.am      1 <0>        -0.5393
      7 C6         -2.8226   -4.8251   -1.1443 C.ar      1 <0>         0.1564
      8 C7         -2.8343   -4.4195   -2.4799 C.ar      1 <0>        -0.1294
      9 C8         -2.8247   -5.4144   -3.4449 C.ar      1 <0>        -0.0634
     10 C9         -2.8046   -6.7539   -3.1132 C.ar      1 <0>        -0.1363
     11 C10        -2.7923   -7.1713   -1.7867 C.ar      1 <0>        -0.0440
     12 C11        -2.8012   -6.1875   -0.8214 C.ar      1 <0>        -0.1688
     13 C12        -2.7907   -6.2630    0.6724 C.3       1 <0>         0.1462
     14 C13        -2.8072   -4.8183    1.1222 C.2       1 <0>         0.5314
     15 O1         -2.8045   -4.4193    2.2676 O.2       1 <0>        -0.4726
     16 C14        -4.0188   -6.9994    1.1966 C.3       1 <0>         0.0725
     17 H1         -4.0867   -7.9901    0.7471 H         1 <0>         0.1772
     18 C15        -3.8403   -7.1125    2.7068 C.2       1 <0>         0.0624
     19 C16        -4.9430   -6.6188    3.2522 C.ar      1 <0>        -0.1471
     20 C17        -5.3960   -6.5381    4.6503 C.ar      1 <0>        -0.0017
     21 C18        -6.6000   -5.9424    4.8574 C.ar      1 <0>        -0.1233
     22 C19        -7.3900   -5.4251    3.8259 C.ar      1 <0>         0.0614
     23 C20        -7.0551   -5.4615    2.5116 C.ar      1 <0>        -0.2052
     24 C21        -5.8129   -6.0691    2.1673 C.ar      1 <0>         0.3322
     25 N2         -5.2627   -6.2608    0.9880 N.pl3     1 <0>        -0.5850
     26 C22        -7.1102   -5.8343    6.2713 C.3       1 <0>        -0.1280
     27 C23        -2.5540   -7.6158    3.3152 C.3       1 <0>        -0.1192
     28 C24        -1.4162   -6.8507    2.6150 C.3       1 <0>         0.0421
     29 N3         -1.5764   -6.9258    1.1594 N.3       1 <0>        -0.6437
     30 H2          1.0039    1.9031    0.0027 H         1 <0>         0.0580
     31 H3         -0.5459    1.8868   -0.8726 H         1 <0>         0.0553
     32 H4         -0.5289    1.8773    0.9072 H         1 <0>         0.0548
     33 H5          0.5123   -0.3556   -0.8948 H         1 <0>         0.0629
     34 H6          0.5293   -0.3651    0.8851 H         1 <0>         0.0620
     35 H7         -1.9435   -0.1821    0.9097 H         1 <0>         0.0658
     36 H8         -1.9605   -0.1726   -0.8702 H         1 <0>         0.0668
     37 H9         -0.9024   -2.4150   -0.8923 H         1 <0>         0.0715
     38 H10        -0.8854   -2.4246    0.8875 H         1 <0>         0.0693
     39 H11        -3.3581   -2.2415    0.9121 H         1 <0>         0.0929
     40 H12        -3.3751   -2.2320   -0.8677 H         1 <0>         0.0939
     41 H13        -2.8504   -3.3739   -2.7501 H         1 <0>         0.1419
     42 H14        -2.8337   -5.1330   -4.4875 H         1 <0>         0.1380
     43 H15        -2.7986   -7.4934   -3.9002 H         1 <0>         0.1368
     44 H16        -2.7769   -8.2189   -1.5248 H         1 <0>         0.1399
     45 H17        -4.8056   -6.9302    5.4651 H         1 <0>         0.1689
     46 H18        -8.3301   -4.9659    4.0936 H         1 <0>         0.1583
     47 H19        -7.7048   -5.0459    1.7556 H         1 <0>         0.1685
     48 H20        -6.7659   -4.8983    6.7111 H         1 <0>         0.0864
     49 H21        -8.2000   -5.8545    6.2669 H         1 <0>         0.0805
     50 H22        -6.7336   -6.6719    6.8584 H         1 <0>         0.0810
     51 H23        -2.5404   -7.4096    4.3854 H         1 <0>         0.1205
     52 H24        -2.4498   -8.6862    3.1378 H         1 <0>         0.1237
     53 H25        -1.4374   -5.8066    2.9273 H         1 <0>         0.1089
     54 H26        -0.4591   -7.2901    2.8961 H         1 <0>         0.1209
     55 H27        -1.5333   -7.8818    0.8397 H         1 <0>         0.3692
     56 H28        -5.6107   -5.9651    0.1323 H         1 <0>         0.4546
@<TRIPOS>BOND
     1    1    2 1
     2    1   30 1
     3    1   31 1
     4    1   32 1
     5    2    3 1
     6    2   33 1
     7    2   34 1
     8    3    4 1
     9    3   35 1
    10    3   36 1
    11    4    5 1
    12    4   37 1
    13    4   38 1
    14    5    6 1
    15    5   39 1
    16    5   40 1
    17    6   14 am
    18    6    7 1
    19    7   12 ar
    20    7    8 ar
    21    8    9 ar
    22    8   41 1
    23    9   10 ar
    24    9   42 1
    25   10   11 ar
    26   10   43 1
    27   11   12 ar
    28   11   44 1
    29   12   13 1
    30   13   29 1
    31   13   14 1
    32   13   16 1
    33   14   15 2
    34   16   17 1
    35   16   25 1
    36   16   18 1
    37   18   19 2
    38   18   27 1
    39   19   24 ar
    40   19   20 ar
    41   20   21 ar
    42   20   45 1
    43   21   22 ar
    44   21   26 1
    45   22   23 ar
    46   22   46 1
    47   23   24 ar
    48   23   47 1
    49   24   25 2
    50   25   56 1
    51   26   48 1
    52   26   49 1
    53   26   50 1
    54   27   28 1
    55   27   51 1
    56   27   52 1
    57   28   29 1
    58   28   53 1
    59   28   54 1
    60   29   55 1
@<TRIPOS>MOLECULE
ZINC03628340
   53    55     0     0     0
SMALL
USER_CHARGES
methyl 2-amino-4-(2,5-dimethoxyphenyl)-7,7-dimethyl-5-oxo-6,8-dihydro-4H-chromene-3-carboxylate
@<TRIPOS>ATOM
      1 C1         -0.7793   -2.2726   -1.9385 C.3       1 <0>        -0.1555
      2 C2         -0.1764   -2.7623   -0.6203 C.3       1 <0>        -0.0557
      3 C3          1.2284   -2.1809   -0.4501 C.3       1 <0>        -0.0716
      4 C4          1.1527   -0.6724   -0.4114 C.2       1 <0>         0.1652
      5 C5          0.0729   -0.0527    0.0982 C.2       1 <0>        -0.2573
      6 C6          0.0072    1.4544    0.1556 C.3       1 <0>         0.1039
      7 H1         -0.4178    1.7616    1.1111 H         1 <0>         0.1087
      8 C7          1.3854    2.0374    0.0126 C.2       1 <0>        -0.3554
      9 C8          2.3967    1.2904   -0.5018 C.2       1 <0>         0.4164
     10 O1          2.1974    0.0245   -0.8972 O.3       1 <0>        -0.2398
     11 N1          3.6447    1.8411   -0.6191 N.pl3     1 <0>        -0.8318
     12 C9          1.6285    3.3606    0.4123 C.2       1 <0>         0.5421
     13 O2          1.7751    3.6231    1.5926 O.2       1 <0>        -0.4974
     14 O3          1.6998    4.3429   -0.5119 O.3       1 <0>        -0.3511
     15 C10         1.9499    5.6663   -0.0341 C.3       1 <0>         0.0292
     16 C11        -0.8675    1.9594   -0.9629 C.ar      1 <0>        -0.0663
     17 C12        -0.5321    1.6930   -2.2763 C.ar      1 <0>        -0.0957
     18 C13        -1.3391    2.1544   -3.3053 C.ar      1 <0>         0.0906
     19 C14        -2.4783    2.8913   -3.0162 C.ar      1 <0>        -0.1671
     20 C15        -2.8110    3.1618   -1.7034 C.ar      1 <0>        -0.1706
     21 C16        -2.0061    2.6966   -0.6739 C.ar      1 <0>         0.1129
     22 O4         -2.3337    2.9629    0.6188 O.3       1 <0>        -0.3046
     23 C17        -3.5200    3.7274    0.8431 C.3       1 <0>         0.0288
     24 O5         -1.0115    1.8881   -4.5980 O.3       1 <0>        -0.3177
     25 C18        -1.8854    2.3981   -5.6070 C.3       1 <0>         0.0282
     26 C19        -1.0262   -0.7833    0.5902 C.2       1 <0>         0.4010
     27 O6         -1.9776   -0.1882    1.0551 O.2       1 <0>        -0.4405
     28 C20        -1.0435   -2.2871    0.5506 C.3       1 <0>        -0.1508
     29 C21        -0.1034   -4.2905   -0.6246 C.3       1 <0>        -0.1411
     30 H2         -0.1507   -2.5965   -2.7680 H         1 <0>         0.0654
     31 H3         -1.7799   -2.6883   -2.0569 H         1 <0>         0.0641
     32 H4         -0.8368   -1.1842   -1.9296 H         1 <0>         0.0619
     33 H5          1.8534   -2.4915   -1.2873 H         1 <0>         0.1026
     34 H6          1.6620   -2.5464    0.4808 H         1 <0>         0.1078
     35 H7          4.3913    1.2935   -0.9084 H         1 <0>         0.4111
     36 H8          3.7824    2.7789   -0.4128 H         1 <0>         0.4234
     37 H9          1.9827    6.3567   -0.8769 H         1 <0>         0.1002
     38 H10         1.1530    5.9630    0.6478 H         1 <0>         0.0602
     39 H11         2.9047    5.6885    0.4912 H         1 <0>         0.0588
     40 H12         0.3568    1.1224   -2.5015 H         1 <0>         0.1274
     41 H13        -3.1051    3.2533   -3.8178 H         1 <0>         0.1294
     42 H14        -3.6981    3.7353   -1.4783 H         1 <0>         0.1307
     43 H15        -3.6648    3.8676    1.9143 H         1 <0>         0.0991
     44 H16        -3.4227    4.6994    0.3594 H         1 <0>         0.0512
     45 H17        -4.3773    3.1985    0.4266 H         1 <0>         0.0539
     46 H18        -1.9297    3.4847   -5.5340 H         1 <0>         0.0535
     47 H19        -1.5095    2.1150   -6.5902 H         1 <0>         0.0991
     48 H20        -2.8837    1.9836   -5.4665 H         1 <0>         0.0534
     49 H21        -1.9809   -2.6117    0.4244 H         1 <0>         0.0914
     50 H22        -0.6448   -2.6834    1.4845 H         1 <0>         0.1046
     51 H23         0.3197   -4.6367    0.3184 H         1 <0>         0.0624
     52 H24        -1.1055   -4.7018   -0.7460 H         1 <0>         0.0661
     53 H25         0.5276   -4.6218   -1.4493 H         1 <0>         0.0649
@<TRIPOS>BOND
     1    1    2 1
     2    1   30 1
     3    1   31 1
     4    1   32 1
     5    2   28 1
     6    2    3 1
     7    2   29 1
     8    3    4 1
     9    3   33 1
    10    3   34 1
    11    4   10 1
    12    4    5 2
    13    5    6 1
    14    5   26 1
    15    6    7 1
    16    6    8 1
    17    6   16 1
    18    8    9 2
    19    8   12 1
    20    9   10 1
    21    9   11 1
    22   11   35 1
    23   11   36 1
    24   12   13 2
    25   12   14 1
    26   14   15 1
    27   15   37 1
    28   15   38 1
    29   15   39 1
    30   16   21 ar
    31   16   17 ar
    32   17   18 ar
    33   17   40 1
    34   18   19 ar
    35   18   24 1
    36   19   20 ar
    37   19   41 1
    38   20   21 ar
    39   20   42 1
    40   21   22 1
    41   22   23 1
    42   23   43 1
    43   23   44 1
    44   23   45 1
    45   24   25 1
    46   25   46 1
    47   25   47 1
    48   25   48 1
    49   26   27 2
    50   26   28 1
    51   28   49 1
    52   28   50 1
    53   29   51 1
    54   29   52 1
    55   29   53 1
@<TRIPOS>MOLECULE
ZINC14169845
   44    46     0     0     0
SMALL
USER_CHARGES
N-[4-(3,4-dimethylphenyl)thiazol-2-yl]-3-(3,6-dioxo-2H-pyridazin-1-yl)propanamide
@<TRIPOS>ATOM
      1 C1         -4.9293   -2.9778    0.0357 C.3       1 <0>        -0.1204
      2 C2         -3.6388   -2.1996    0.0265 C.ar      1 <0>        -0.0799
      3 C3         -3.6668   -0.8198   -0.0704 C.ar      1 <0>        -0.1173
      4 C4         -2.4884   -0.1021   -0.0789 C.ar      1 <0>        -0.1044
      5 C5         -1.2680   -0.7700    0.0105 C.ar      1 <0>        -0.0292
      6 C6         -1.2457   -2.1604    0.1022 C.ar      1 <0>        -0.0821
      7 C7         -2.4310   -2.8676    0.1154 C.ar      1 <0>        -0.0909
      8 C8         -2.4088   -4.3707    0.2212 C.3       1 <0>        -0.1178
      9 C9          0.0021   -0.0041    0.0020 C.2       1 <0>         0.1200
     10 C10        -0.0165    1.3629    0.0095 C.2       1 <0>        -0.2376
     11 S1          1.7360    1.7180   -0.0053 S.3       1 <0>         0.1209
     12 C11         2.3067    0.0242   -0.0198 C.2       1 <0>         0.3113
     13 N1          1.1650   -0.6381   -0.0125 N.2       1 <0>        -0.5285
     14 N2          3.6070   -0.4653   -0.0355 N.am      1 <0>        -0.6077
     15 C12         4.6489    0.3896   -0.0408 C.2       1 <0>         0.5248
     16 O1          4.4515    1.5862   -0.0318 O.2       1 <0>        -0.4942
     17 C13         6.0592   -0.1413   -0.0578 C.3       1 <0>        -0.1543
     18 C14         7.0447    1.0290   -0.0606 C.3       1 <0>         0.1278
     19 N3          8.4157    0.5129   -0.0772 N.am      1 <0>        -0.4009
     20 C15         9.0143    0.1818    1.0824 C.2       1 <0>         0.5349
     21 O2          8.4176    0.3119    2.1332 O.2       1 <0>        -0.5065
     22 C16        10.3954   -0.3442    1.0771 C.2       1 <0>        -0.1242
     23 C17        11.0404   -0.4759   -0.0960 C.2       1 <0>        -0.1233
     24 C18        10.3465   -0.0949   -1.3440 C.2       1 <0>         0.5373
     25 O3         10.9133   -0.2075   -2.4132 O.2       1 <0>        -0.5107
     26 N4          9.0862    0.3764   -1.2965 N.am      1 <0>        -0.5036
     27 H1          8.6371    0.6244   -2.1197 H         1 <0>         0.4301
     28 H2         -5.2048   -3.2367   -0.9867 H         1 <0>         0.0720
     29 H3         -4.7998   -3.8894    0.6190 H         1 <0>         0.0714
     30 H4         -5.7169   -2.3701    0.4814 H         1 <0>         0.0666
     31 H5         -4.6129   -0.3035   -0.1400 H         1 <0>         0.1260
     32 H6         -2.5114    0.9750   -0.1549 H         1 <0>         0.1247
     33 H7         -0.3029   -2.6833    0.1668 H         1 <0>         0.1307
     34 H8         -2.3676   -4.8047   -0.7778 H         1 <0>         0.0709
     35 H9         -1.5320   -4.6821    0.7891 H         1 <0>         0.0658
     36 H10        -3.3107   -4.7125    0.7289 H         1 <0>         0.0713
     37 H11        -0.8571    2.0409    0.0174 H         1 <0>         0.1997
     38 H12         3.7649   -1.4224   -0.0427 H         1 <0>         0.4288
     39 H13         6.2269   -0.7554    0.8270 H         1 <0>         0.1178
     40 H14         6.2094   -0.7449   -0.9529 H         1 <0>         0.1119
     41 H15         6.8769    1.6431   -0.9454 H         1 <0>         0.1057
     42 H16         6.8945    1.6326    0.8345 H         1 <0>         0.1204
     43 H17        10.8815   -0.6155    2.0025 H         1 <0>         0.1717
     44 H18        12.0514   -0.8545   -0.1255 H         1 <0>         0.1710
@<TRIPOS>BOND
     1    1    2 1
     2    1   28 1
     3    1   29 1
     4    1   30 1
     5    2    7 ar
     6    2    3 ar
     7    3    4 ar
     8    3   31 1
     9    4    5 ar
    10    4   32 1
    11    5    6 ar
    12    5    9 1
    13    6    7 ar
    14    6   33 1
    15    7    8 1
    16    8   34 1
    17    8   35 1
    18    8   36 1
    19    9   13 1
    20    9   10 2
    21   10   11 1
    22   10   37 1
    23   11   12 1
    24   12   13 2
    25   12   14 1
    26   14   15 am
    27   14   38 1
    28   15   16 2
    29   15   17 1
    30   17   18 1
    31   17   39 1
    32   17   40 1
    33   18   19 1
    34   18   41 1
    35   18   42 1
    36   19   26 1
    37   19   20 am
    38   20   21 2
    39   20   22 1
    40   22   23 2
    41   22   43 1
    42   23   24 1
    43   23   44 1
    44   24   25 2
    45   24   26 am
    46   26   27 1
@<TRIPOS>MOLECULE
ZINC40569668
   49    52     0     0     0
SMALL
USER_CHARGES

@<TRIPOS>ATOM
      1 C1         -0.0184    1.4908    0.0218 C.3       1 <0>        -0.1348
      2 C2         -0.0274   -0.0157    0.0583 C.2       1 <0>         0.2040
      3 C3         -0.1702   -0.7088   -1.0916 C.2       1 <0>        -0.2350
      4 C4         -0.1790   -2.1188   -1.0633 C.2       1 <0>         0.2328
      5 C5         -0.0404   -2.7631    0.1477 C.2       1 <0>        -0.2787
      6 C6          0.1046   -2.0023    1.3151 C.2       1 <0>         0.5455
      7 O1          0.2283   -2.5594    2.3947 O.2       1 <0>        -0.5258
      8 N1          0.1138   -0.6580    1.2474 N.am      1 <0>        -0.4925
      9 C7          0.2722    0.1248    2.4755 C.3       1 <0>         0.1265
     10 C8          1.7269    0.4683    2.6681 C.ar      1 <0>        -0.1176
     11 C9          2.5792   -0.4428    3.2633 C.ar      1 <0>        -0.0897
     12 C10         3.9135   -0.1277    3.4400 C.ar      1 <0>        -0.1200
     13 C11         4.3956    1.0982    3.0211 C.ar      1 <0>        -0.1085
     14 C12         3.5434    2.0090    2.4250 C.ar      1 <0>        -0.1235
     15 C13         2.2100    1.6922    2.2445 C.ar      1 <0>        -0.1088
     16 C14        -0.0427   -4.2652    0.2246 C.3       1 <0>         0.1614
     17 H1         -0.6570   -4.5830    1.0670 H         1 <0>         0.1175
     18 C15        -0.5984   -4.8476   -1.0453 C.2       1 <0>        -0.3700
     19 C16        -0.7043   -4.1010   -2.1738 C.2       1 <0>         0.4356
     20 O2         -0.3213   -2.8139   -2.2118 O.3       1 <0>        -0.2371
     21 N2         -1.2155   -4.6763   -3.3060 N.pl3     1 <0>        -0.8281
     22 C17        -1.0146   -6.1872   -1.0642 C.2       1 <0>         0.5408
     23 O3         -2.0642   -6.5064   -0.5348 O.2       1 <0>        -0.4979
     24 O4         -0.2515   -7.1230   -1.6694 O.3       1 <0>        -0.3498
     25 C18        -0.7365   -8.4670   -1.6506 C.3       1 <0>         0.0285
     26 C19         1.3680   -4.7574    0.4213 C.2       1 <0>         0.0022
     27 C20         1.8090   -5.4857    1.4626 C.2       1 <0>        -0.1949
     28 C21         3.1851   -5.7242    1.2422 C.2       1 <0>        -0.2113
     29 C22         3.5026   -5.1274    0.0793 C.2       1 <0>        -0.0460
     30 O5          2.3968   -4.5483   -0.4164 O.3       1 <0>        -0.1692
     31 H2          1.0110    1.8471   -0.0189 H         1 <0>         0.0988
     32 H3         -0.5575    1.8361   -0.8604 H         1 <0>         0.0983
     33 H4         -0.5020    1.8789    0.9182 H         1 <0>         0.0875
     34 H5         -0.2776   -0.1852   -2.0301 H         1 <0>         0.1619
     35 H6         -0.3108    1.0426    2.3991 H         1 <0>         0.1043
     36 H7         -0.0790   -0.4589    3.3263 H         1 <0>         0.1154
     37 H8          2.2026   -1.4006    3.5906 H         1 <0>         0.1308
     38 H9          4.5793   -0.8393    3.9057 H         1 <0>         0.1244
     39 H10         5.4379    1.3447    3.1598 H         1 <0>         0.1239
     40 H11         3.9200    2.9669    2.0980 H         1 <0>         0.1252
     41 H12         1.5450    2.4023    1.7754 H         1 <0>         0.1255
     42 H13        -1.5639   -5.5810   -3.2754 H         1 <0>         0.4245
     43 H14        -1.2293   -4.1792   -4.1388 H         1 <0>         0.4127
     44 H15        -0.8444   -8.7999   -0.6183 H         1 <0>         0.0615
     45 H16        -1.7046   -8.5110   -2.1495 H         1 <0>         0.0593
     46 H17        -0.0305   -9.1154   -2.1695 H         1 <0>         0.1012
     47 H18         1.2243   -5.8230    2.3057 H         1 <0>         0.1446
     48 H19         3.8531   -6.2788    1.8845 H         1 <0>         0.1457
     49 H20         4.4801   -5.1188   -0.3799 H         1 <0>         0.1989
@<TRIPOS>BOND
     1    1    2 1
     2    1   31 1
     3    1   32 1
     4    1   33 1
     5    2    8 1
     6    2    3 2
     7    3    4 1
     8    3   34 1
     9    4   20 1
    10    4    5 2
    11    5    6 1
    12    5   16 1
    13    6    7 2
    14    6    8 am
    15    8    9 1
    16    9   10 1
    17    9   35 1
    18    9   36 1
    19   10   15 ar
    20   10   11 ar
    21   11   12 ar
    22   11   37 1
    23   12   13 ar
    24   12   38 1
    25   13   14 ar
    26   13   39 1
    27   14   15 ar
    28   14   40 1
    29   15   41 1
    30   16   17 1
    31   16   18 1
    32   16   26 1
    33   18   19 2
    34   18   22 1
    35   19   20 1
    36   19   21 1
    37   21   42 1
    38   21   43 1
    39   22   23 2
    40   22   24 1
    41   24   25 1
    42   25   44 1
    43   25   45 1
    44   25   46 1
    45   26   30 1
    46   26   27 2
    47   27   28 1
    48   27   47 1
    49   28   29 2
    50   28   48 1
    51   29   30 1
    52   29   49 1
@<TRIPOS>MOLECULE
ZINC54371431
   45    48     0     0     0
SMALL
USER_CHARGES

@<TRIPOS>ATOM
      1 C1          0.0477    1.4234    0.0759 C.3       1 <0>         0.0248
      2 O1          0.0454   -0.0053    0.0458 O.3       1 <0>        -0.3085
      3 C2          0.6269   -0.6010   -1.0293 C.ar      1 <0>         0.1305
      4 C3          1.1926    0.1726   -2.0304 C.ar      1 <0>        -0.1746
      5 C4          1.7834   -0.4346   -3.1225 C.ar      1 <0>        -0.0841
      6 C5          1.8118   -1.8136   -3.2195 C.ar      1 <0>        -0.1140
      7 C6          1.2500   -2.5913   -2.2245 C.ar      1 <0>        -0.0770
      8 C7          0.6606   -1.9891   -1.1241 C.ar      1 <0>         0.0606
      9 O2          0.1116   -2.7528   -0.1420 O.3       1 <0>        -0.2802
     10 C8         -1.2224   -2.9390   -0.1569 C.2       1 <0>         0.5146
     11 O3         -1.8846   -2.5146   -1.0828 O.2       1 <0>        -0.4824
     12 C9         -1.8800   -3.6591    0.9525 C.ar      1 <0>        -0.1769
     13 C10        -3.2657   -3.8645    0.9462 C.ar      1 <0>        -0.0098
     14 C11        -3.8323   -4.5453    2.0088 C.ar      1 <0>        -0.1817
     15 C12        -3.0203   -4.9973    3.0340 C.ar      1 <0>         0.1351
     16 N1         -1.7177   -4.7893    3.0134 N.ar      1 <0>        -0.4897
     17 C13        -1.1306   -4.1516    2.0221 C.ar      1 <0>         0.1623
     18 C14         2.3975    0.4084   -4.2104 C.3       1 <0>         0.4266
     19 H1          3.4454    0.5942   -3.9747 H         1 <0>         0.1236
     20 N2          2.3064   -0.3067   -5.4892 N.pl3     1 <0>        -0.7470
     21 C15         1.0772   -0.3551   -6.1367 C.ar      1 <0>         0.2333
     22 C16         0.7170   -1.4179   -6.9470 C.ar      1 <0>        -0.1806
     23 C17        -0.5190   -1.4180   -7.5649 C.ar      1 <0>        -0.0520
     24 C18        -1.3995   -0.3636   -7.3800 C.ar      1 <0>        -0.1685
     25 C19        -1.0555    0.7038   -6.5765 C.ar      1 <0>        -0.0215
     26 C20         0.1874    0.7176   -5.9488 C.ar      1 <0>        -0.2003
     27 C21         0.6094    1.8365   -5.0869 C.2       1 <0>         0.5775
     28 O4         -0.0086    2.8838   -5.0923 O.2       1 <0>        -0.5322
     29 N3          1.6864    1.6839   -4.2944 N.am      1 <0>        -0.7351
     30 H2          1.0757    1.7854    0.0610 H         1 <0>         0.0599
     31 H3         -0.4850    1.8060   -0.7947 H         1 <0>         0.0587
     32 H4         -0.4459    1.7684    0.9844 H         1 <0>         0.1054
     33 H5          1.1714    1.2499   -1.9573 H         1 <0>         0.1375
     34 H6          2.2738   -2.2841   -4.0748 H         1 <0>         0.1369
     35 H7          1.2732   -3.6682   -2.3030 H         1 <0>         0.1417
     36 H8         -3.8759   -3.5005    0.1329 H         1 <0>         0.1501
     37 H9         -4.8973   -4.7219    2.0381 H         1 <0>         0.1490
     38 H10        -3.4603   -5.5287    3.8649 H         1 <0>         0.1667
     39 H11        -0.0608   -4.0049    2.0388 H         1 <0>         0.1724
     40 H12         3.0867   -0.7357   -5.8739 H         1 <0>         0.4166
     41 H13         1.3984   -2.2425   -7.0958 H         1 <0>         0.1305
     42 H14        -0.8012   -2.2465   -8.1977 H         1 <0>         0.1294
     43 H15        -2.3624   -0.3776   -7.8690 H         1 <0>         0.1290
     44 H16        -1.7450    1.5231   -6.4357 H         1 <0>         0.1345
     45 H17         1.9959    2.4371   -3.7674 H         1 <0>         0.4089
@<TRIPOS>BOND
     1    1    2 1
     2    1   30 1
     3    1   31 1
     4    1   32 1
     5    2    3 1
     6    3    8 ar
     7    3    4 ar
     8    4    5 ar
     9    4   33 1
    10    5    6 ar
    11    5   18 1
    12    6    7 ar
    13    6   34 1
    14    7    8 ar
    15    7   35 1
    16    8    9 1
    17    9   10 1
    18   10   11 2
    19   10   12 1
    20   12   17 ar
    21   12   13 ar
    22   13   14 ar
    23   13   36 1
    24   14   15 ar
    25   14   37 1
    26   15   16 ar
    27   15   38 1
    28   16   17 ar
    29   17   39 1
    30   18   19 1
    31   18   29 1
    32   18   20 1
    33   20   21 1
    34   20   40 1
    35   21   26 ar
    36   21   22 ar
    37   22   23 ar
    38   22   41 1
    39   23   24 ar
    40   23   42 1
    41   24   25 ar
    42   24   43 1
    43   25   26 ar
    44   25   44 1
    45   26   27 1
    46   27   28 2
    47   27   29 am
    48   29   45 1
@<TRIPOS>MOLECULE
ZINC52472510
   47    50     0     0     0
SMALL
USER_CHARGES

@<TRIPOS>ATOM
      1 C1         -0.0104    1.5290    0.0042 C.3       1 <0>        -0.1612
      2 C2          0.0020   -0.0009    0.0035 C.3       1 <0>         0.2031
      3 C3         -1.4146   -0.5148    0.0204 C.ar      1 <0>        -0.1000
      4 C4         -2.1218   -0.5495    1.2081 C.ar      1 <0>        -0.0850
      5 C5         -3.4204   -1.0199    1.2267 C.ar      1 <0>        -0.1288
      6 C6         -4.0154   -1.4577    0.0514 C.ar      1 <0>         0.1387
      7 C7         -3.3030   -1.4213   -1.1395 C.ar      1 <0>        -0.1267
      8 C8         -2.0065   -0.9453   -1.1527 C.ar      1 <0>        -0.0757
      9 N1         -5.3335   -1.9363    0.0673 N.pl3     1 <0>        -0.4139
     10 C9         -6.0439   -2.4035   -1.0082 C.2       1 <0>        -0.0542
     11 C10        -7.2587   -2.7587   -0.5487 C.2       1 <0>        -0.0190
     12 N2         -7.2946   -2.5173    0.7702 N.2       1 <0>        -0.4827
     13 C11        -6.1455   -2.0301    1.1521 C.2       1 <0>         0.1891
     14 N3          0.7110   -0.4840    1.1911 N.am      1 <0>        -0.7359
     15 C12         2.0534   -0.6018    1.1730 C.2       1 <0>         0.7060
     16 O1          2.6762   -0.3072    0.1712 O.2       1 <0>        -0.5662
     17 N4          2.7056   -1.0463    2.2656 N.am      1 <0>        -0.6862
     18 C13         4.0879   -1.2606    2.2166 C.ar      1 <0>         0.1655
     19 C14         4.6538   -2.3118    2.9283 C.ar      1 <0>        -0.1359
     20 C15         6.0183   -2.5277    2.8832 C.ar      1 <0>        -0.0936
     21 C16         6.8279   -1.7007    2.1311 C.ar      1 <0>        -0.1106
     22 C17         6.2692   -0.6423    1.4128 C.ar      1 <0>         0.0004
     23 C18         4.8915   -0.4280    1.4539 C.ar      1 <0>        -0.0997
     24 C19         7.1340    0.2451    0.6064 C.2       1 <0>        -0.0010
     25 C20         8.4810    0.1513    0.4644 C.2       1 <0>        -0.0209
     26 N5          8.8715    1.1452   -0.3475 N.2       1 <0>        -0.4865
     27 C21         7.8247    1.8358   -0.7034 C.2       1 <0>         0.1758
     28 O2          6.7349    1.3015   -0.1354 O.3       1 <0>        -0.1951
     29 H1          1.0142    1.9007   -0.0081 H         1 <0>         0.0689
     30 H2         -0.5378    1.8885   -0.8794 H         1 <0>         0.0712
     31 H3         -0.5164    1.8879    0.9004 H         1 <0>         0.0600
     32 H4          0.5080   -0.3598   -0.8927 H         1 <0>         0.1024
     33 H5         -1.6583   -0.2087    2.1222 H         1 <0>         0.1321
     34 H6         -3.9721   -1.0475    2.1547 H         1 <0>         0.1352
     35 H7         -3.7633   -1.7616   -2.0553 H         1 <0>         0.1351
     36 H8         -1.4531   -0.9129   -2.0797 H         1 <0>         0.1381
     37 H9         -5.6960   -2.4730   -2.0283 H         1 <0>         0.1791
     38 H10        -8.0649   -3.1671   -1.1399 H         1 <0>         0.1766
     39 H11        -5.8849   -1.7465    2.1611 H         1 <0>         0.2091
     40 H12         0.2141   -0.7191    1.9903 H         1 <0>         0.3972
     41 H13         2.2171   -1.2176    3.0858 H         1 <0>         0.4089
     42 H14         4.0253   -2.9619    3.5188 H         1 <0>         0.1303
     43 H15         6.4523   -3.3459    3.4386 H         1 <0>         0.1366
     44 H16         7.8937   -1.8724    2.0986 H         1 <0>         0.1319
     45 H17         4.4530    0.3864    0.8965 H         1 <0>         0.1482
     46 H18         9.1213   -0.5882    0.9221 H         1 <0>         0.1871
     47 H19         7.8337    2.6971   -1.3549 H         1 <0>         0.2523
@<TRIPOS>BOND
     1    1    2 1
     2    1   29 1
     3    1   30 1
     4    1   31 1
     5    2    3 1
     6    2   14 1
     7    2   32 1
     8    3    8 ar
     9    3    4 ar
    10    4    5 ar
    11    4   33 1
    12    5    6 ar
    13    5   34 1
    14    6    7 ar
    15    6    9 1
    16    7    8 ar
    17    7   35 1
    18    8   36 1
    19    9   13 1
    20    9   10 1
    21   10   11 2
    22   10   37 1
    23   11   12 1
    24   11   38 1
    25   12   13 2
    26   13   39 1
    27   14   15 am
    28   14   40 1
    29   15   16 2
    30   15   17 am
    31   17   18 1
    32   17   41 1
    33   18   23 ar
    34   18   19 ar
    35   19   20 ar
    36   19   42 1
    37   20   21 ar
    38   20   43 1
    39   21   22 ar
    40   21   44 1
    41   22   23 ar
    42   22   24 1
    43   23   45 1
    44   24   28 1
    45   24   25 2
    46   25   26 1
    47   25   46 1
    48   26   27 2
    49   27   28 1
    50   27   47 1
@<TRIPOS>MOLECULE
ZINC01747679
   49    51     0     0     0
SMALL
USER_CHARGES
3-(4-chlorophenyl)-8-(diethylaminomethyl)-7-hydroxy-2-(trifluoromethyl)chromen-4-one
@<TRIPOS>ATOM
      1 C1         -1.4067   -1.3473    4.0629 C.3       1 <0>        -0.1901
      2 C2          0.0189   -0.8446    4.2993 C.3       1 <0>        -0.0100
      3 C3          1.3188    1.1981    4.3082 C.3       1 <0>        -0.0103
      4 C4          1.0048    1.5795    5.7562 C.3       1 <0>        -0.1884
      5 C5          0.2732    0.4374    2.2611 C.3       1 <0>         0.0568
      6 C6          0.1752    1.8289    1.6908 C.ar      1 <0>        -0.2123
      7 C7          1.3196    2.5874    1.5104 C.ar      1 <0>         0.2084
      8 C8          1.2416    3.8749    0.9842 C.ar      1 <0>        -0.1634
      9 C9          0.0316    4.4061    0.6383 C.ar      1 <0>         0.0245
     10 C10        -1.1304    3.6541    0.8142 C.ar      1 <0>        -0.2231
     11 C11        -1.0622    2.3516    1.3395 C.ar      1 <0>         0.1953
     12 O1         -2.1864    1.6291    1.5140 O.3       1 <0>        -0.2130
     13 C12        -3.4036    2.0797    1.1999 C.2       1 <0>         0.0407
     14 C13        -3.6134    3.3164    0.6793 C.2       1 <0>        -0.1178
     15 C14        -2.4531    4.1948    0.4523 C.2       1 <0>         0.4255
     16 O2         -2.5806    5.3147   -0.0119 O.2       1 <0>        -0.4004
     17 C15        -4.9844    3.7734    0.3453 C.ar      1 <0>        -0.0799
     18 C16        -5.6779    3.1887   -0.7129 C.ar      1 <0>        -0.0820
     19 C17        -6.9553    3.6138   -1.0162 C.ar      1 <0>        -0.1050
     20 C18        -7.5437    4.6267   -0.2784 C.ar      1 <0>        -0.0126
     21 C19        -6.8570    5.2143    0.7702 C.ar      1 <0>        -0.1064
     22 C20        -5.5812    4.7928    1.0850 C.ar      1 <0>        -0.0607
     23 Cl1        -9.1483    5.1616   -0.6693 Cl        1 <0>        -0.0497
     24 C21        -4.5907    1.1810    1.4326 C.3       1 <0>         0.5356
     25 F1         -5.1042    0.7585    0.2017 F         1 <0>        -0.1479
     26 F2         -4.1928    0.0667    2.1791 F         1 <0>        -0.1636
     27 F3         -5.5772    1.8835    2.1330 F         1 <0>        -0.1417
     28 O3          2.5285    2.0718    1.8499 O.3       1 <0>        -0.4899
     29 H1         -2.1181   -0.6185    4.4512 H         1 <0>         0.0792
     30 H2         -1.5717   -1.4822    2.9939 H         1 <0>         0.0805
     31 H3         -1.5458   -2.2994    4.5750 H         1 <0>         0.1079
     32 H4          0.7270   -1.5227    3.8230 H         1 <0>         0.1332
     33 H5          0.2174   -0.8056    5.3704 H         1 <0>         0.1322
     34 H6          2.1899    0.5434    4.2856 H         1 <0>         0.1339
     35 H7          1.5268    2.0997    3.7320 H         1 <0>         0.1324
     36 H8          1.8616    2.0950    6.1902 H         1 <0>         0.1067
     37 H9          0.1357    2.2371    5.7785 H         1 <0>         0.0767
     38 H10         0.7933    0.6783    6.3317 H         1 <0>         0.0798
     39 H11        -0.5351   -0.1761    1.8631 H         1 <0>         0.1404
     40 H12         1.2320   -0.0016    1.9854 H         1 <0>         0.1451
     41 H13         2.1420    4.4556    0.8487 H         1 <0>         0.1615
     42 H14        -0.0253    5.4043    0.2299 H         1 <0>         0.1639
     43 H15        -5.2179    2.4018   -1.2921 H         1 <0>         0.1390
     44 H16        -7.4952    3.1584   -1.8331 H         1 <0>         0.1453
     45 H17        -7.3203    6.0042    1.3428 H         1 <0>         0.1449
     46 H18        -5.0460    5.2523    1.9028 H         1 <0>         0.1349
     47 H19         2.9678    1.5943    1.1329 H         1 <0>         0.4169
     48 N1          0.1421    0.5144    3.7313 N.4       1 <0>        -0.3962
     49 H20        -0.7022    1.0506    3.9633 H         1 <0>         0.4229
@<TRIPOS>BOND
     1    1    2 1
     2    1   29 1
     3    1   30 1
     4    1   31 1
     5    2   32 1
     6    2   33 1
     7    2   48 1
     8    3    4 1
     9    3   34 1
    10    3   35 1
    11    3   48 1
    12    4   36 1
    13    4   37 1
    14    4   38 1
    15    5    6 1
    16    5   39 1
    17    5   40 1
    18    5   48 1
    19    6   11 ar
    20    6    7 ar
    21    7    8 ar
    22    7   28 1
    23    8    9 ar
    24    8   41 1
    25    9   10 ar
    26    9   42 1
    27   10   15 1
    28   10   11 ar
    29   11   12 1
    30   12   13 1
    31   13   14 2
    32   13   24 1
    33   14   15 1
    34   14   17 1
    35   15   16 2
    36   17   22 ar
    37   17   18 ar
    38   18   19 ar
    39   18   43 1
    40   19   20 ar
    41   19   44 1
    42   20   21 ar
    43   20   23 1
    44   21   22 ar
    45   21   45 1
    46   22   46 1
    47   24   25 1
    48   24   26 1
    49   24   27 1
    50   28   47 1
    51   48   49 1
@<TRIPOS>MOLECULE
ZINC12407554
   52    55     0     0     0
SMALL
USER_CHARGES
N-[(2-chlorophenyl)methyl]-1-[2-(1-piperidyl)ethyl]benzimidazol-2-amine
@<TRIPOS>ATOM
      1 C1          2.8165    7.3025   -2.9554 C.ar      1 <0>        -0.1129
      2 C2          3.6604    7.3427   -1.8609 C.ar      1 <0>        -0.0922
      3 C3          4.1396    6.1675   -1.3140 C.ar      1 <0>        -0.1129
      4 C4          3.7744    4.9504   -1.8617 C.ar      1 <0>        -0.0230
      5 C5          2.9297    4.9108   -2.9565 C.ar      1 <0>        -0.1107
      6 C6          2.4552    6.0872   -3.5059 C.ar      1 <0>        -0.0839
      7 C7          2.5320    3.5857   -3.5539 C.3       1 <0>         0.1842
      8 N1          1.4603    2.9904   -2.7518 N.pl3     1 <0>        -0.7030
      9 C8          0.9305    1.7680   -3.1076 C.2       1 <0>         0.5478
     10 N2          1.3117    1.0536   -4.1370 N.2       1 <0>        -0.5258
     11 C9          0.5779   -0.0888   -4.1965 C.ar      1 <0>         0.0888
     12 C10         0.5653   -1.1771   -5.0724 C.ar      1 <0>        -0.0739
     13 C11        -0.3187   -2.2120   -4.8646 C.ar      1 <0>        -0.1111
     14 C12        -1.1976   -2.1823   -3.7920 C.ar      1 <0>        -0.1062
     15 C13        -1.1974   -1.1151   -2.9177 C.ar      1 <0>        -0.1105
     16 C14        -0.3139   -0.0641   -3.1117 C.ar      1 <0>         0.0314
     17 N3         -0.0670    1.1202   -2.4368 N.pl3     1 <0>        -0.5191
     18 C15        -0.7527    1.5927   -1.2315 C.3       1 <0>         0.0961
     19 C16        -0.0127    1.0858    0.0080 C.3       1 <0>        -0.0287
     20 C17        -0.6201    3.0215    1.3288 C.3       1 <0>        -0.0100
     21 C18        -1.4665    3.4907    2.5143 C.3       1 <0>        -0.1456
     22 C19        -0.9495    2.8326    3.7966 C.3       1 <0>        -0.1396
     23 C20        -0.9982    1.3107    3.6353 C.3       1 <0>        -0.1467
     24 C21        -0.1654    0.9047    2.4172 C.3       1 <0>        -0.0011
     25 Cl1         4.3764    3.4738   -1.1756 Cl        1 <0>        -0.0639
     26 H1          2.4428    8.2212   -3.3829 H         1 <0>         0.1361
     27 H2          3.9453    8.2927   -1.4335 H         1 <0>         0.1379
     28 H3          4.7993    6.1991   -0.4595 H         1 <0>         0.1373
     29 H4          1.7993    6.0565   -4.3634 H         1 <0>         0.1372
     30 H5          3.3933    2.9178   -3.5625 H         1 <0>         0.0879
     31 H6          2.1802    3.7381   -4.5743 H         1 <0>         0.0860
     32 H7          1.1235    3.4561   -1.9704 H         1 <0>         0.4012
     33 H8          1.2470   -1.2066   -5.9096 H         1 <0>         0.1340
     34 H9         -0.3281   -3.0531   -5.5420 H         1 <0>         0.1346
     35 H10        -1.8862   -3.0003   -3.6398 H         1 <0>         0.1328
     36 H11        -1.8838   -1.0982   -2.0840 H         1 <0>         0.1152
     37 H12        -1.7753    1.2154   -1.2238 H         1 <0>         0.1130
     38 H13        -0.7675    2.6825   -1.2255 H         1 <0>         0.1039
     39 H14         0.0021   -0.0041    0.0020 H         1 <0>         0.1389
     40 H15         1.0099    1.4631    0.0003 H         1 <0>         0.1359
     41 H16         0.4175    3.3175    1.4837 H         1 <0>         0.1328
     42 H17        -0.9947    3.4772    0.4122 H         1 <0>         0.1255
     43 H18        -2.5067    3.2071    2.3537 H         1 <0>         0.0890
     44 H19        -1.3949    4.5744    2.6071 H         1 <0>         0.1136
     45 H20        -1.5764    3.1301    4.6371 H         1 <0>         0.0958
     46 H21         0.0781    3.1467    3.9795 H         1 <0>         0.0824
     47 H22        -2.0310    0.9928    3.4922 H         1 <0>         0.0887
     48 H23        -0.5914    0.8368    4.5286 H         1 <0>         0.1140
     49 H24        -0.2097   -0.1770    2.2912 H         1 <0>         0.1298
     50 H25         0.8700    1.2108    2.5671 H         1 <0>         0.1310
     51 N4         -0.7290    1.5516    1.2133 N.4       1 <0>        -0.3899
     52 H26        -1.7202    1.2965    1.1315 H         1 <0>         0.4278
@<TRIPOS>BOND
     1    1    6 ar
     2    1    2 ar
     3    1   26 1
     4    2    3 ar
     5    2   27 1
     6    3    4 ar
     7    3   28 1
     8    4    5 ar
     9    4   25 1
    10    5    6 ar
    11    5    7 1
    12    6   29 1
    13    7    8 1
    14    7   30 1
    15    7   31 1
    16    8    9 1
    17    8   32 1
    18    9   17 1
    19    9   10 2
    20   10   11 1
    21   11   16 ar
    22   11   12 ar
    23   12   13 ar
    24   12   33 1
    25   13   14 ar
    26   13   34 1
    27   14   15 ar
    28   14   35 1
    29   15   16 ar
    30   15   36 1
    31   16   17 1
    32   17   18 1
    33   18   19 1
    34   18   37 1
    35   18   38 1
    36   19   39 1
    37   19   40 1
    38   19   51 1
    39   20   21 1
    40   20   41 1
    41   20   42 1
    42   20   51 1
    43   21   22 1
    44   21   43 1
    45   21   44 1
    46   22   23 1
    47   22   45 1
    48   22   46 1
    49   23   24 1
    50   23   47 1
    51   23   48 1
    52   24   49 1
    53   24   50 1
    54   24   51 1
    55   51   52 1
@<TRIPOS>MOLECULE
ZINC13142814
   52    55     0     0     0
SMALL
USER_CHARGES

@<TRIPOS>ATOM
      1 C1         -0.0166    1.3726    0.0096 C.ar      1 <0>        -0.1109
      2 C2          1.1689    2.0927    0.0021 C.ar      1 <0>        -0.1052
      3 C3          2.3836    1.4388   -0.0130 C.ar      1 <0>        -0.1107
      4 C4          2.4213    0.0528   -0.0208 C.ar      1 <0>         0.0318
      5 C5          1.2239   -0.6813   -0.0133 C.ar      1 <0>         0.0876
      6 C6          0.0021   -0.0041    0.0020 C.ar      1 <0>        -0.0733
      7 N1          1.5618   -1.9977   -0.0236 N.2       1 <0>        -0.5252
      8 C7          2.8660   -2.1169   -0.0368 C.2       1 <0>         0.5443
      9 N2          3.4451   -0.8803   -0.0356 N.pl3     1 <0>        -0.5188
     10 C8          4.8817   -0.5937   -0.0485 C.3       1 <0>         0.0964
     11 C9          5.3963   -0.5011    1.3894 C.3       1 <0>        -0.0329
     12 N3          6.8368   -0.2137    1.3764 N.4       1 <0>        -0.3786
     13 C10         7.5539   -1.3420    0.7705 C.3       1 <0>        -0.0163
     14 C11         9.0458   -1.0140    0.6805 C.3       1 <0>        -0.1445
     15 C12         9.5920   -0.7566    2.0879 C.3       1 <0>        -0.1400
     16 C13         8.7877    0.3726    2.7383 C.3       1 <0>        -0.1456
     17 C14         7.3053   -0.0067    2.7520 C.3       1 <0>        -0.0063
     18 N4          3.5521   -3.3130   -0.0498 N.pl3     1 <0>        -0.7071
     19 C15         2.8161   -4.5797   -0.0501 C.3       1 <0>         0.1868
     20 C16         3.7921   -5.7278   -0.0655 C.ar      1 <0>        -0.1127
     21 C17         4.2332   -6.2440   -1.2699 C.ar      1 <0>        -0.0826
     22 C18         5.1284   -7.2970   -1.2847 C.ar      1 <0>        -0.1118
     23 C19         5.5831   -7.8346   -0.0950 C.ar      1 <0>        -0.0769
     24 C20         5.1425   -7.3183    1.1100 C.ar      1 <0>        -0.0954
     25 C21         4.2505   -6.2609    1.1243 C.ar      1 <0>        -0.0725
     26 Br1         5.7637   -8.0537    2.7377 Br        1 <0>        -0.0387
     27 H1         -0.9613    1.8958    0.0260 H         1 <0>         0.1351
     28 H2          1.1408    3.1723    0.0079 H         1 <0>         0.1333
     29 H3          3.3031    2.0053   -0.0191 H         1 <0>         0.1157
     30 H4         -0.9247   -0.5585    0.0083 H         1 <0>         0.1343
     31 H5          5.4070   -1.3929   -0.5716 H         1 <0>         0.1047
     32 H6          5.0589    0.3526   -0.5595 H         1 <0>         0.1138
     33 H7          4.8710    0.2981    1.9124 H         1 <0>         0.1408
     34 H8          5.2191   -1.4475    1.9003 H         1 <0>         0.1345
     35 H9          7.4144   -2.2322    1.3838 H         1 <0>         0.1313
     36 H10         7.1619   -1.5260   -0.2298 H         1 <0>         0.1279
     37 H11         9.5767   -1.8537    0.2320 H         1 <0>         0.1141
     38 H12         9.1865   -0.1241    0.0671 H         1 <0>         0.0894
     39 H13         9.4982   -1.6626    2.6866 H         1 <0>         0.0827
     40 H14        10.6410   -0.4673    2.0245 H         1 <0>         0.0963
     41 H15         9.1341    0.5241    3.7606 H         1 <0>         0.1145
     42 H16         8.9230    1.2913    2.1676 H         1 <0>         0.0890
     43 H17         6.7298    0.7950    3.2146 H         1 <0>         0.1320
     44 H18         7.1711   -0.9254    3.3231 H         1 <0>         0.1297
     45 H19         4.5221   -3.3157   -0.0587 H         1 <0>         0.4016
     46 H20         2.1975   -4.6407    0.8453 H         1 <0>         0.0844
     47 H21         2.1811   -4.6307   -0.9346 H         1 <0>         0.0860
     48 H22         3.8778   -5.8244   -2.1995 H         1 <0>         0.1334
     49 H23         5.4724   -7.7001   -2.2257 H         1 <0>         0.1384
     50 H24         6.2820   -8.6579   -0.1066 H         1 <0>         0.1380
     51 H25         3.9091   -5.8549    2.0650 H         1 <0>         0.1342
     52 H26         7.0075    0.6204    0.8350 H         1 <0>         0.4241
@<TRIPOS>BOND
     1    1    6 ar
     2    1    2 ar
     3    1   27 1
     4    2    3 ar
     5    2   28 1
     6    3    4 ar
     7    3   29 1
     8    4    9 1
     9    4    5 ar
    10    5    6 ar
    11    5    7 1
    12    6   30 1
    13    7    8 2
    14    8    9 1
    15    8   18 1
    16    9   10 1
    17   10   11 1
    18   10   31 1
    19   10   32 1
    20   11   12 1
    21   11   33 1
    22   11   34 1
    23   12   17 1
    24   12   13 1
    25   12   52 1
    26   13   14 1
    27   13   35 1
    28   13   36 1
    29   14   15 1
    30   14   37 1
    31   14   38 1
    32   15   16 1
    33   15   39 1
    34   15   40 1
    35   16   17 1
    36   16   41 1
    37   16   42 1
    38   17   43 1
    39   17   44 1
    40   18   19 1
    41   18   45 1
    42   19   20 1
    43   19   46 1
    44   19   47 1
    45   20   25 ar
    46   20   21 ar
    47   21   22 ar
    48   21   48 1
    49   22   23 ar
    50   22   49 1
    51   23   24 ar
    52   23   50 1
    53   24   25 ar
    54   24   26 1
    55   25   51 1
@<TRIPOS>MOLECULE
ZINC39248160
   46    50     0     0     0
SMALL
USER_CHARGES

@<TRIPOS>ATOM
      1 C1          0.7793    1.5869    1.3400 C.3       1 <0>        -0.1191
      2 C2          0.6724    0.0985    1.1302 C.ar      1 <0>        -0.0475
      3 C3          0.5914   -0.4118   -0.1570 C.ar      1 <0>        -0.1203
      4 C4          0.4933   -1.7693   -0.3656 C.ar      1 <0>        -0.0535
      5 C5          0.4755   -2.6398    0.7271 C.ar      1 <0>         0.0450
      6 C6          0.5583   -2.1176    2.0284 C.ar      1 <0>         0.0750
      7 C7          0.6614   -0.7482    2.2196 C.ar      1 <0>        -0.1192
      8 N1          0.5177   -3.2063    2.8842 N.pl3     1 <0>        -0.5754
      9 C8          0.4148   -4.3268    2.1091 C.2       1 <0>         0.2156
     10 N2          0.3902   -3.9910    0.8426 N.2       1 <0>        -0.4461
     11 S1          0.3289   -5.9770    2.7210 S.3       1 <0>         0.1078
     12 C9          0.2056   -6.9942    1.2241 C.3       1 <0>        -0.1470
     13 C10        -0.1881   -8.3969    1.6456 C.2       1 <0>         0.2805
     14 C11         0.6752   -9.4344    1.2828 C.ar      1 <0>        -0.1708
     15 C12         0.3850  -10.7695    1.6341 C.ar      1 <0>         0.0171
     16 C13         1.2426  -11.7610    1.2679 C.ar      1 <0>        -0.0899
     17 C14         2.4053  -11.4845    0.5504 C.ar      1 <0>         0.0766
     18 C15         2.7385  -10.2162    0.1836 C.ar      1 <0>        -0.1976
     19 C16         1.8988   -9.1420    0.5281 C.ar      1 <0>         0.3439
     20 N3          2.2275   -7.8972    0.1661 N.am      1 <0>        -0.5918
     21 C17         1.4946   -6.8383    0.4498 C.2       1 <0>         0.5141
     22 O1          1.8561   -5.7341    0.0874 O.2       1 <0>        -0.3796
     23 Cl1         0.8810  -13.4023    1.7025 Cl        1 <0>        -0.0081
     24 C18        -1.3782   -8.6444    2.3752 C.ar      1 <0>        -0.1735
     25 C19        -1.3129   -9.1503    3.6839 C.ar      1 <0>        -0.0588
     26 C20        -2.4749   -9.3874    4.3839 C.ar      1 <0>        -0.1142
     27 C21        -3.7051   -9.1286    3.8017 C.ar      1 <0>        -0.0525
     28 C22        -3.7805   -8.6295    2.5115 C.ar      1 <0>        -0.1133
     29 C23        -2.6304   -8.3800    1.7964 C.ar      1 <0>        -0.0507
     30 H1          1.8296    1.8782    1.3483 H         1 <0>         0.0781
     31 H2          0.2648    2.1058    0.5311 H         1 <0>         0.0749
     32 H3          0.3208    1.8535    2.2922 H         1 <0>         0.0708
     33 H4          0.6051    0.2607   -1.0019 H         1 <0>         0.1373
     34 H5          0.4299   -2.1598   -1.3706 H         1 <0>         0.1334
     35 H6          0.7293   -0.3449    3.2191 H         1 <0>         0.1290
     36 H7         -0.6021   -6.5896    0.6142 H         1 <0>         0.2026
     37 H8         -0.5111  -11.0032    2.1898 H         1 <0>         0.1762
     38 H9          3.0603  -12.2989    0.2782 H         1 <0>         0.1768
     39 H10         3.6471  -10.0353   -0.3714 H         1 <0>         0.1807
     40 H11        -0.3549   -9.3531    4.1393 H         1 <0>         0.1414
     41 H12        -2.4269   -9.7767    5.3902 H         1 <0>         0.1483
     42 H13        -4.6117   -9.3176    4.3574 H         1 <0>         0.1448
     43 H14        -4.7444   -8.4314    2.0666 H         1 <0>         0.1476
     44 H15        -2.6910   -7.9864    0.7925 H         1 <0>         0.1402
     45 H16         3.0493   -7.7662   -0.3323 H         1 <0>         0.4424
     46 H17         0.5557   -3.1783    3.8530 H         1 <0>         0.4286
@<TRIPOS>BOND
     1    1    2 1
     2    1   30 1
     3    1   31 1
     4    1   32 1
     5    2    7 ar
     6    2    3 ar
     7    3    4 ar
     8    3   33 1
     9    4    5 ar
    10    4   34 1
    11    5   10 1
    12    5    6 ar
    13    6    7 ar
    14    6    8 1
    15    7   35 1
    16    8    9 1
    17    8   46 1
    18    9   10 2
    19    9   11 1
    20   11   12 1
    21   12   21 1
    22   12   13 1
    23   12   36 1
    24   13   14 2
    25   13   24 1
    26   14   19 ar
    27   14   15 ar
    28   15   16 ar
    29   15   37 1
    30   16   17 ar
    31   16   23 1
    32   17   18 ar
    33   17   38 1
    34   18   19 ar
    35   18   39 1
    36   19   20 2
    37   20   21 am
    38   20   45 1
    39   21   22 2
    40   24   29 ar
    41   24   25 ar
    42   25   26 ar
    43   25   40 1
    44   26   27 ar
    45   26   41 1
    46   27   28 ar
    47   27   42 1
    48   28   29 ar
    49   28   43 1
    50   29   44 1
@<TRIPOS>MOLECULE
ZINC63091689
   55    58     0     0     0
SMALL
USER_CHARGES

@<TRIPOS>ATOM
      1 C1         -0.0173    1.4248    0.0099 C.3       1 <0>         0.0224
      2 O1          0.0021   -0.0041    0.0020 O.3       1 <0>        -0.3106
      3 C2          0.6058   -0.6071   -1.0557 C.ar      1 <0>         0.1514
      4 C3          1.1730    0.1607   -2.0624 C.ar      1 <0>        -0.2016
      5 C4          1.7865   -0.4547   -3.1363 C.ar      1 <0>        -0.0518
      6 C5          1.8352   -1.8346   -3.2086 C.ar      1 <0>        -0.1465
      7 C6          1.2702   -2.6021   -2.2068 C.ar      1 <0>        -0.0818
      8 C7          0.6609   -1.9915   -1.1277 C.ar      1 <0>        -0.1444
      9 C8          2.5046   -2.5033   -4.3815 C.3       1 <0>        -0.0094
     10 H1          2.8873   -1.7436   -5.0630 H         1 <0>         0.1249
     11 C9          1.4895   -3.3820   -5.1153 C.3       1 <0>         0.1235
     12 N1          2.1067   -3.9375   -6.3222 N.am      1 <0>        -0.7455
     13 C10         1.3954   -4.7475   -7.1311 C.2       1 <0>         0.5206
     14 O2          0.2443   -5.0165   -6.8599 O.2       1 <0>        -0.5178
     15 C11         2.0303   -5.3189   -8.3726 C.3       1 <0>        -0.1065
     16 H2          2.8970   -5.9200   -8.0975 H         1 <0>         0.0986
     17 C12         1.0124   -6.1923   -9.1170 C.3       1 <0>        -0.1019
     18 C13         1.7313   -6.8986  -10.2686 C.3       1 <0>        -0.0968
     19 C14         2.5277   -5.9078  -11.0660 C.2       1 <0>        -0.1447
     20 C15         2.8491   -4.7273  -10.6431 C.2       1 <0>        -0.1665
     21 C16         2.4664   -4.1808   -9.2978 C.3       1 <0>        -0.0771
     22 C17         3.6449   -3.3570   -3.8894 C.2       1 <0>         0.0767
     23 C18         4.9525   -3.2316   -4.2116 C.ar      1 <0>        -0.1702
     24 C19         5.6767   -2.2995   -5.0841 C.ar      1 <0>        -0.0147
     25 C20         7.0172   -2.4262   -5.2103 C.ar      1 <0>        -0.1486
     26 C21         7.7306   -3.4231   -4.5307 C.ar      1 <0>         0.0533
     27 C22         7.1354   -4.3160   -3.7118 C.ar      1 <0>        -0.2079
     28 C23         5.7290   -4.2751   -3.5047 C.ar      1 <0>         0.3289
     29 N2          4.9324   -5.0168   -2.7739 N.pl3     1 <0>        -0.5826
     30 C24         3.5596   -4.5231   -2.9301 C.3       1 <0>         0.0527
     31 H3          1.0053    1.8021    0.0021 H         1 <0>         0.0601
     32 H4         -0.5445    1.7859   -0.8732 H         1 <0>         0.0618
     33 H5         -0.5275    1.7763    0.9067 H         1 <0>         0.1089
     34 H6          1.1347    1.2385   -2.0068 H         1 <0>         0.1388
     35 H7          2.2283    0.1425   -3.9203 H         1 <0>         0.1332
     36 H8          1.3092   -3.6798   -2.2657 H         1 <0>         0.1274
     37 H9          0.2237   -2.5913   -0.3432 H         1 <0>         0.1405
     38 H10         1.1732   -4.1950   -4.4618 H         1 <0>         0.0801
     39 H11         0.6234   -2.7816   -5.3935 H         1 <0>         0.0995
     40 H12         3.0274   -3.7224   -6.5391 H         1 <0>         0.3981
     41 H13         0.5973   -6.9338   -8.4345 H         1 <0>         0.0766
     42 H14         0.2129   -5.5663   -9.5132 H         1 <0>         0.0743
     43 H15         2.4002   -7.6587   -9.8649 H         1 <0>         0.0762
     44 H16         0.9951   -7.3751  -10.9160 H         1 <0>         0.0816
     45 H17         2.8533   -6.1977  -12.0541 H         1 <0>         0.1086
     46 H18         3.4325   -4.0964  -11.2974 H         1 <0>         0.1096
     47 H19         1.6429   -3.4769   -9.4178 H         1 <0>         0.0799
     48 H20         3.3194   -3.6641   -8.8578 H         1 <0>         0.0722
     49 H21         5.1468   -1.5243   -5.6177 H         1 <0>         0.1604
     50 H22         7.5520   -1.7414   -5.8518 H         1 <0>         0.1583
     51 H23         8.8003   -3.4795   -4.6683 H         1 <0>         0.1610
     52 H24         7.7304   -5.0655   -3.2113 H         1 <0>         0.1607
     53 H25         3.1659   -4.1913   -1.9694 H         1 <0>         0.1762
     54 H26         2.9260   -5.3063   -3.3462 H         1 <0>         0.1734
     55 H27         5.2055   -5.7644   -2.2195 H         1 <0>         0.4562
@<TRIPOS>BOND
     1    1    2 1
     2    1   31 1
     3    1   32 1
     4    1   33 1
     5    2    3 1
     6    3    8 ar
     7    3    4 ar
     8    4    5 ar
     9    4   34 1
    10    5    6 ar
    11    5   35 1
    12    6    7 ar
    13    6    9 1
    14    7    8 ar
    15    7   36 1
    16    8   37 1
    17    9   10 1
    18    9   11 1
    19    9   22 1
    20   11   12 1
    21   11   38 1
    22   11   39 1
    23   12   13 am
    24   12   40 1
    25   13   14 2
    26   13   15 1
    27   15   16 1
    28   15   21 1
    29   15   17 1
    30   17   18 1
    31   17   41 1
    32   17   42 1
    33   18   19 1
    34   18   43 1
    35   18   44 1
    36   19   20 2
    37   19   45 1
    38   20   21 1
    39   20   46 1
    40   21   47 1
    41   21   48 1
    42   22   30 1
    43   22   23 2
    44   23   28 ar
    45   23   24 ar
    46   24   25 ar
    47   24   49 1
    48   25   26 ar
    49   25   50 1
    50   26   27 ar
    51   26   51 1
    52   27   28 ar
    53   27   52 1
    54   28   29 2
    55   29   30 1
    56   29   55 1
    57   30   53 1
    58   30   54 1
@<TRIPOS>MOLECULE
ZINC04527675
   70    71     0     0     0
SMALL
USER_CHARGES
N-(6-aminohexyl)-N-[1-[3-(2-methoxyethyl)-4-oxo-quinazolin-2-yl]ethyl]pentanamide
@<TRIPOS>ATOM
      1 C1         -4.6578    3.3330    4.7700 C.3       1 <0>        -0.1549
      2 C2         -4.2214    3.8951    3.4155 C.3       1 <0>        -0.1224
      3 C3         -2.7843    3.4599    3.1218 C.3       1 <0>        -0.1052
      4 C4         -2.3480    4.0220    1.7673 C.3       1 <0>        -0.1339
      5 C5         -0.9325    3.5933    1.4780 C.2       1 <0>         0.5263
      6 O1         -0.3319    2.9059    2.2764 O.2       1 <0>        -0.4977
      7 N1         -0.3341    3.9738    0.3318 N.am      1 <0>        -0.6063
      8 C6         -1.0597    4.8042   -0.6327 C.3       1 <0>         0.1139
      9 C7         -1.8055    3.9048   -1.6205 C.3       1 <0>        -0.1396
     10 C8         -2.5632    4.7721   -2.6278 C.3       1 <0>        -0.1175
     11 C9         -3.3090    3.8727   -3.6157 C.3       1 <0>        -0.1184
     12 C10        -4.0668    4.7399   -4.6230 C.3       1 <0>        -0.1529
     13 C11        -4.8126    3.8406   -5.6109 C.3       1 <0>        -0.0066
     14 C12         1.0419    3.5570    0.0506 C.3       1 <0>         0.1971
     15 H1          1.3528    3.9575   -0.9144 H         1 <0>         0.1276
     16 C13         1.9694    4.0876    1.1456 C.3       1 <0>        -0.1760
     17 C14         1.1140    2.0522    0.0167 C.2       1 <0>         0.3911
     18 N2          0.1356    1.3768    0.5387 N.2       1 <0>        -0.4827
     19 C15         0.1314    0.0203    0.5444 C.ar      1 <0>         0.1588
     20 C16        -0.9208   -0.7067    1.1052 C.ar      1 <0>        -0.1085
     21 C17        -0.8837   -2.0827    1.0886 C.ar      1 <0>        -0.0732
     22 C18         0.1882   -2.7589    0.5205 C.ar      1 <0>        -0.1401
     23 C19         1.2377   -2.0639   -0.0394 C.ar      1 <0>        -0.0417
     24 C20         1.2198   -0.6707   -0.0325 C.ar      1 <0>        -0.2025
     25 C21         2.3113    0.1241   -0.6150 C.2       1 <0>         0.5493
     26 O2          3.2782   -0.4092   -1.1273 O.2       1 <0>        -0.5120
     27 N3          2.1992    1.4717   -0.5588 N.am      1 <0>        -0.5356
     28 C22         3.2577    2.3123   -1.1239 C.3       1 <0>         0.0832
     29 C23         3.0347    2.4700   -2.6293 C.3       1 <0>         0.0443
     30 O3          1.8200    3.1869   -2.8584 O.3       1 <0>        -0.3933
     31 C24         1.5164    3.3896   -4.2400 C.3       1 <0>         0.0344
     32 H2         -5.6815    3.6431    4.9793 H         1 <0>         0.0542
     33 H3         -4.6056    2.2446    4.7455 H         1 <0>         0.0548
     34 H4         -3.9970    3.7110    5.5501 H         1 <0>         0.0559
     35 H5         -4.2736    4.9836    3.4400 H         1 <0>         0.0599
     36 H6         -4.8822    3.5172    2.6354 H         1 <0>         0.0578
     37 H7         -2.7322    2.3714    3.0973 H         1 <0>         0.0702
     38 H8         -2.1236    3.8378    3.9019 H         1 <0>         0.0693
     39 H9         -2.4002    5.1105    1.7918 H         1 <0>         0.0870
     40 H10        -3.0088    3.6441    0.9872 H         1 <0>         0.0863
     41 H11        -1.7747    5.4345   -0.1040 H         1 <0>         0.0826
     42 H12        -0.3531    5.4323   -1.1752 H         1 <0>         0.0793
     43 H13        -1.0905    3.2745   -2.1492 H         1 <0>         0.0702
     44 H14        -2.5120    3.2767   -1.0780 H         1 <0>         0.0683
     45 H15        -3.2782    5.4024   -2.0992 H         1 <0>         0.0687
     46 H16        -1.8567    5.4002   -3.1704 H         1 <0>         0.0676
     47 H17        -2.5940    3.2424   -4.1444 H         1 <0>         0.0726
     48 H18        -4.0155    3.2446   -3.0732 H         1 <0>         0.0744
     49 H19        -4.7818    5.3703   -4.0943 H         1 <0>         0.0884
     50 H20        -3.3602    5.3681   -5.1656 H         1 <0>         0.0870
     51 H21        -4.0976    3.2103   -6.1396 H         1 <0>         0.1308
     52 H22        -5.5191    3.2125   -5.0683 H         1 <0>         0.1345
     53 H23        -6.0413    4.1022   -7.2419 H         1 <0>         0.4404
     54 H24        -6.1633    5.3126   -6.1080 H         1 <0>         0.4373
     55 H25         3.0029    3.8515    0.8923 H         1 <0>         0.0692
     56 H26         1.8533    5.1682    1.2281 H         1 <0>         0.0767
     57 H27         1.7128    3.6209    2.0967 H         1 <0>         0.0881
     58 H28        -1.7594   -0.1918    1.5502 H         1 <0>         0.1354
     59 H29        -1.6985   -2.6434    1.5225 H         1 <0>         0.1336
     60 H30         0.1988   -3.8388    0.5172 H         1 <0>         0.1337
     61 H31         2.0685   -2.5951   -0.4798 H         1 <0>         0.1364
     62 H32         3.2355    3.2930   -0.6486 H         1 <0>         0.1103
     63 H33         4.2263    1.8446   -0.9471 H         1 <0>         0.1160
     64 H34         3.8689    3.0202   -3.0645 H         1 <0>         0.0757
     65 H35         2.9682    1.4852   -3.0919 H         1 <0>         0.0619
     66 H36         2.3192    3.9589   -4.7086 H         1 <0>         0.0463
     67 H37         1.4184    2.4239   -4.7360 H         1 <0>         0.0402
     68 H38         0.5802    3.9406   -4.3293 H         1 <0>         0.0824
     69 N4         -5.5207    4.6854   -6.5888 N.4       1 <0>        -0.6478
     70 H39        -4.8354    5.2438   -7.1112 H         1 <0>         0.4392
@<TRIPOS>BOND
     1    1    2 1
     2    1   32 1
     3    1   33 1
     4    1   34 1
     5    2    3 1
     6    2   35 1
     7    2   36 1
     8    3    4 1
     9    3   37 1
    10    3   38 1
    11    4    5 1
    12    4   39 1
    13    4   40 1
    14    5    6 2
    15    5    7 am
    16    7    8 1
    17    7   14 1
    18    8    9 1
    19    8   41 1
    20    8   42 1
    21    9   10 1
    22    9   43 1
    23    9   44 1
    24   10   11 1
    25   10   45 1
    26   10   46 1
    27   11   12 1
    28   11   47 1
    29   11   48 1
    30   12   13 1
    31   12   49 1
    32   12   50 1
    33   13   51 1
    34   13   52 1
    35   13   69 1
    36   14   15 1
    37   14   16 1
    38   14   17 1
    39   16   55 1
    40   16   56 1
    41   16   57 1
    42   17   27 1
    43   17   18 2
    44   18   19 1
    45   19   24 ar
    46   19   20 ar
    47   20   21 ar
    48   20   58 1
    49   21   22 ar
    50   21   59 1
    51   22   23 ar
    52   22   60 1
    53   23   24 ar
    54   23   61 1
    55   24   25 1
    56   25   26 2
    57   25   27 am
    58   27   28 1
    59   28   29 1
    60   28   62 1
    61   28   63 1
    62   29   30 1
    63   29   64 1
    64   29   65 1
    65   30   31 1
    66   31   66 1
    67   31   67 1
    68   31   68 1
    69   53   69 1
    70   54   69 1
    71   69   70 1
@<TRIPOS>MOLECULE
ZINC06193217
   71    73     0     0     0
SMALL
USER_CHARGES
1-benzyl-3-(3-diethylaminopropyl)-1-[(6-ethoxy-2-oxo-1H-quinolin-3-yl)methyl]thiourea
@<TRIPOS>ATOM
      1 C1         -3.7820   -2.2911    7.6840 C.3       1 <0>        -0.1871
      2 C2         -2.7628   -3.4265    7.7989 C.3       1 <0>        -0.0153
      3 C3         -4.5408   -5.0418    7.4952 C.3       1 <0>        -0.0105
      4 C4         -4.4253   -5.5033    8.9494 C.3       1 <0>        -0.1887
      5 C5         -3.2658   -4.2716    5.5863 C.3       1 <0>        -0.0039
      6 C6         -1.8417   -4.0401    5.0772 C.3       1 <0>        -0.1677
      7 C7         -1.8809   -3.7160    3.5824 C.3       1 <0>         0.1308
      8 N1         -0.5173   -3.4943    3.0949 N.pl3     1 <0>        -0.6965
      9 C8         -0.3058   -3.1925    1.7985 C.2       1 <0>         0.5629
     10 S1         -1.6308   -3.0683    0.7214 S.2       1 <0>        -0.6319
     11 N2          0.9486   -2.9886    1.3500 N.pl3     1 <0>        -0.5449
     12 C9          2.0903   -3.2118    2.2405 C.3       1 <0>         0.1265
     13 C10         2.4876   -1.9085    2.8844 C.ar      1 <0>        -0.1158
     14 C11         3.3435   -1.0452    2.2264 C.ar      1 <0>        -0.0919
     15 C12         3.7040    0.1526    2.8149 C.ar      1 <0>        -0.1115
     16 C13         3.2167    0.4824    4.0657 C.ar      1 <0>        -0.1069
     17 C14         2.3653   -0.3835    4.7262 C.ar      1 <0>        -0.1191
     18 C15         2.0006   -1.5789    4.1354 C.ar      1 <0>        -0.1119
     19 C16         1.1706   -2.5436   -0.0280 C.3       1 <0>         0.1783
     20 C17         1.2581   -3.7436   -0.9354 C.2       1 <0>        -0.2315
     21 C18         0.1604   -4.1581   -1.6150 C.2       1 <0>         0.0398
     22 C19         0.2780   -5.3272   -2.4885 C.ar      1 <0>        -0.0982
     23 C20        -0.8206   -5.7998   -3.2143 C.ar      1 <0>        -0.0859
     24 C21        -0.6746   -6.9044   -4.0289 C.ar      1 <0>         0.1035
     25 C22         0.5577   -7.5462   -4.1295 C.ar      1 <0>        -0.1444
     26 C23         1.6466   -7.0901   -3.4203 C.ar      1 <0>        -0.1239
     27 C24         1.5213   -5.9784   -2.5935 C.ar      1 <0>         0.1506
     28 N3          2.6007   -5.5057   -1.8751 N.am      1 <0>        -0.6302
     29 H1          3.4838   -5.9688   -1.9506 H         1 <0>         0.4217
     30 C25         2.4823   -4.4316   -1.0752 C.2       1 <0>         0.5459
     31 O1          3.4570   -4.0419   -0.4555 O.2       1 <0>        -0.5499
     32 O2         -1.7389   -7.3686   -4.7363 O.3       1 <0>        -0.3126
     33 C26        -1.5198   -8.5154   -5.5602 C.3       1 <0>         0.0530
     34 C27        -2.8215   -8.8876   -6.2728 C.3       1 <0>        -0.1542
     35 H2         -3.3966   -1.4046    8.1876 H         1 <0>         0.1056
     36 H3         -3.9565   -2.0646    6.6322 H         1 <0>         0.0807
     37 H4         -4.7190   -2.5955    8.1504 H         1 <0>         0.0821
     38 H5         -2.6536   -3.7122    8.8451 H         1 <0>         0.1305
     39 H6         -1.8007   -3.0916    7.4113 H         1 <0>         0.1267
     40 H7         -5.2574   -4.2231    7.4297 H         1 <0>         0.1336
     41 H8         -4.8804   -5.8723    6.8763 H         1 <0>         0.1299
     42 H9         -3.6400   -6.2548    9.0308 H         1 <0>         0.0790
     43 H10        -4.1796   -4.6509    9.5827 H         1 <0>         0.0805
     44 H11        -5.3741   -5.9331    9.2706 H         1 <0>         0.1064
     45 H12        -3.8601   -3.3722    5.4250 H         1 <0>         0.1395
     46 H13        -3.7140   -5.1051    5.0455 H         1 <0>         0.1368
     47 H14        -1.2474   -4.9395    5.2385 H         1 <0>         0.0931
     48 H15        -1.3935   -3.2066    5.6181 H         1 <0>         0.0932
     49 H16        -2.4751   -2.8166    3.4211 H         1 <0>         0.0975
     50 H17        -2.3291   -4.5495    3.0416 H         1 <0>         0.0965
     51 H18         0.2334   -3.5647    3.7052 H         1 <0>         0.3955
     52 H19         1.8136   -3.9292    3.0131 H         1 <0>         0.0782
     53 H20         2.9290   -3.6032    1.6648 H         1 <0>         0.1249
     54 H21         3.7275   -1.3047    1.2509 H         1 <0>         0.1306
     55 H22         4.3695    0.8289    2.2990 H         1 <0>         0.1297
     56 H23         3.5014    1.4165    4.5271 H         1 <0>         0.1272
     57 H24         1.9848   -0.1260    5.7036 H         1 <0>         0.1227
     58 H25         1.3354   -2.2554    4.6514 H         1 <0>         0.1058
     59 H26         2.1012   -1.9787   -0.0820 H         1 <0>         0.1031
     60 H27         0.3418   -1.9095   -0.3430 H         1 <0>         0.1202
     61 H28        -0.7804   -3.6374   -1.5138 H         1 <0>         0.1712
     62 H29        -1.7767   -5.3033   -3.1379 H         1 <0>         0.1467
     63 H30         0.6602   -8.4097   -4.7700 H         1 <0>         0.1395
     64 H31         2.5974   -7.5949   -3.5064 H         1 <0>         0.1384
     65 H32        -0.7521   -8.2898   -6.3003 H         1 <0>         0.0642
     66 H33        -1.1930   -9.3507   -4.9408 H         1 <0>         0.0627
     67 H34        -2.6544   -9.7624   -6.9013 H         1 <0>         0.0810
     68 H35        -3.5892   -9.1132   -5.5327 H         1 <0>         0.0671
     69 H36        -3.1483   -8.0523   -6.8922 H         1 <0>         0.0685
     70 N4         -3.2094   -4.6042    7.0254 N.4       1 <0>        -0.3953
     71 H37        -2.5386   -5.3688    7.1650 H         1 <0>         0.4278
@<TRIPOS>BOND
     1    1    2 1
     2    1   35 1
     3    1   36 1
     4    1   37 1
     5    2   38 1
     6    2   39 1
     7    2   70 1
     8    3    4 1
     9    3   40 1
    10    3   41 1
    11    3   70 1
    12    4   42 1
    13    4   43 1
    14    4   44 1
    15    5    6 1
    16    5   45 1
    17    5   46 1
    18    5   70 1
    19    6    7 1
    20    6   47 1
    21    6   48 1
    22    7    8 1
    23    7   49 1
    24    7   50 1
    25    8    9 1
    26    8   51 1
    27    9   10 2
    28    9   11 1
    29   11   12 1
    30   11   19 1
    31   12   13 1
    32   12   52 1
    33   12   53 1
    34   13   18 ar
    35   13   14 ar
    36   14   15 ar
    37   14   54 1
    38   15   16 ar
    39   15   55 1
    40   16   17 ar
    41   16   56 1
    42   17   18 ar
    43   17   57 1
    44   18   58 1
    45   19   20 1
    46   19   59 1
    47   19   60 1
    48   20   30 1
    49   20   21 2
    50   21   22 1
    51   21   61 1
    52   22   27 ar
    53   22   23 ar
    54   23   24 ar
    55   23   62 1
    56   24   25 ar
    57   24   32 1
    58   25   26 ar
    59   25   63 1
    60   26   27 ar
    61   26   64 1
    62   27   28 1
    63   28   29 1
    64   28   30 am
    65   30   31 2
    66   32   33 1
    67   33   34 1
    68   33   65 1
    69   33   66 1
    70   34   67 1
    71   34   68 1
    72   34   69 1
    73   70   71 1
@<TRIPOS>MOLECULE
ZINC16213182
   61    62     0     0     0
SMALL
USER_CHARGES
1-[(1R)-2-methoxy-1-methyl-ethyl]-3-[4-[4-[[(1R)-2-methoxy-1-methyl-ethyl]carbamothioylamino]phenoxy]phenyl]thiourea
@<TRIPOS>ATOM
      1 C1          7.3427   -8.7250   -0.3880 C.3       1 <0>        -0.1604
      2 C2          8.0155   -7.3562   -0.5090 C.3       1 <0>         0.1488
      3 H1          7.8161   -6.9123   -1.4955 H         1 <0>         0.1282
      4 C3          9.5208   -7.5058   -0.2798 C.3       1 <0>         0.0487
      5 O1          9.7500   -8.1442    0.9780 O.3       1 <0>        -0.3902
      6 C4         11.1315   -8.3330    1.2907 C.3       1 <0>         0.0278
      7 N1          7.4567   -6.4470    0.4947 N.pl3     1 <0>        -0.6840
      8 C5          6.3220   -5.7687    0.2321 C.2       1 <0>         0.5648
      9 S1          5.5338   -5.9695   -1.2743 S.2       1 <0>        -0.6349
     10 N2          5.8079   -4.9322    1.1554 N.pl3     1 <0>        -0.6431
     11 C6          4.5690   -4.3180    0.9315 C.ar      1 <0>         0.0998
     12 C7          3.5180   -5.0495    0.3946 C.ar      1 <0>        -0.0339
     13 C8          2.2969   -4.4436    0.1746 C.ar      1 <0>        -0.1360
     14 C9          2.1199   -3.1042    0.4903 C.ar      1 <0>         0.1304
     15 C10         3.1714   -2.3712    1.0216 C.ar      1 <0>        -0.1897
     16 C11         4.3914   -2.9774    1.2469 C.ar      1 <0>        -0.0856
     17 O2          0.9172   -2.5082    0.2739 O.3       1 <0>        -0.2558
     18 C12         0.7904   -1.1925    0.5919 C.ar      1 <0>         0.0892
     19 C13         1.2998   -0.2214   -0.2582 C.ar      1 <0>        -0.1288
     20 C14         1.1709    1.1151    0.0640 C.ar      1 <0>        -0.1109
     21 C15         0.5318    1.4871    1.2393 C.ar      1 <0>         0.1278
     22 C16         0.0222    0.5148    2.0896 C.ar      1 <0>        -0.0606
     23 C17         0.1513   -0.8214    1.7661 C.ar      1 <0>        -0.1145
     24 N3          0.4012    2.8428    1.5669 N.pl3     1 <0>        -0.6448
     25 C18        -0.7552    3.3026    2.0844 C.2       1 <0>         0.5643
     26 S2         -2.0244    2.2122    2.4466 S.2       1 <0>        -0.6285
     27 N4         -0.9125    4.6209    2.3167 N.pl3     1 <0>        -0.6817
     28 C19        -2.1695    5.1207    2.8792 C.3       1 <0>         0.1480
     29 H2         -2.9787    4.5002    2.4667 H         1 <0>         0.1288
     30 C20        -2.1269    5.0064    4.4043 C.3       1 <0>        -0.1609
     31 C21        -2.3586    6.5863    2.4827 C.3       1 <0>         0.0487
     32 O3         -1.3333    7.3788    3.0851 O.3       1 <0>        -0.3908
     33 C22        -1.4185    8.7715    2.7767 C.3       1 <0>         0.0277
     34 H3          6.2604   -8.6174   -0.5528 H         1 <0>         0.0737
     35 H4          7.5217   -9.1339    0.6174 H         1 <0>         0.0640
     36 H5          7.7623   -9.4077   -1.1416 H         1 <0>         0.0704
     37 H6          9.9555   -8.1159   -1.0853 H         1 <0>         0.0743
     38 H7          9.9920   -6.5118   -0.2778 H         1 <0>         0.0576
     39 H8         11.2217   -8.8276    2.2691 H         1 <0>         0.0897
     40 H9         11.6363   -7.3563    1.3256 H         1 <0>         0.0427
     41 H10        11.5999   -8.9604    0.5181 H         1 <0>         0.0455
     42 H11         7.9632   -6.3179    1.4626 H         1 <0>         0.4225
     43 H12         6.3612   -4.7318    2.0848 H         1 <0>         0.4274
     44 H13         3.6557   -6.0921    0.1489 H         1 <0>         0.1482
     45 H14         1.4794   -5.0125   -0.2430 H         1 <0>         0.1378
     46 H15         3.0343   -1.3275    1.2630 H         1 <0>         0.1321
     47 H16         5.2085   -2.4079    1.6645 H         1 <0>         0.1255
     48 H17         1.7969   -0.5109   -1.1723 H         1 <0>         0.1351
     49 H18         1.5711    1.8707   -0.5957 H         1 <0>         0.1300
     50 H19        -0.4756    0.8036    3.0035 H         1 <0>         0.1634
     51 H20        -0.2456   -1.5777    2.4271 H         1 <0>         0.1368
     52 H21         1.2424    3.5320    1.4018 H         1 <0>         0.4304
     53 H22        -0.0971    5.3215    2.0839 H         1 <0>         0.4237
     54 H23        -3.0707    5.3817    4.8266 H         1 <0>         0.0713
     55 H24        -1.2884    5.6026    4.7934 H         1 <0>         0.0644
     56 H25        -1.9910    3.9527    4.6893 H         1 <0>         0.0734
     57 H26        -2.2996    6.6806    1.3883 H         1 <0>         0.0584
     58 H27        -3.3427    6.9356    2.8283 H         1 <0>         0.0751
     59 H28        -0.5983    9.3084    3.2758 H         1 <0>         0.0899
     60 H29        -2.3830    9.1666    3.1284 H         1 <0>         0.0459
     61 H30        -1.3398    8.9115    1.6885 H         1 <0>         0.0431
@<TRIPOS>BOND
     1    1    2 1
     2    1   34 1
     3    1   35 1
     4    1   36 1
     5    2    3 1
     6    2    4 1
     7    2    7 1
     8    4    5 1
     9    4   37 1
    10    4   38 1
    11    5    6 1
    12    6   39 1
    13    6   40 1
    14    6   41 1
    15    7    8 1
    16    7   42 1
    17    8    9 2
    18    8   10 1
    19   10   11 1
    20   10   43 1
    21   11   16 ar
    22   11   12 ar
    23   12   13 ar
    24   12   44 1
    25   13   14 ar
    26   13   45 1
    27   14   15 ar
    28   14   17 1
    29   15   16 ar
    30   15   46 1
    31   16   47 1
    32   17   18 1
    33   18   23 ar
    34   18   19 ar
    35   19   20 ar
    36   19   48 1
    37   20   21 ar
    38   20   49 1
    39   21   22 ar
    40   21   24 1
    41   22   23 ar
    42   22   50 1
    43   23   51 1
    44   24   25 1
    45   24   52 1
    46   25   26 2
    47   25   27 1
    48   27   28 1
    49   27   53 1
    50   28   29 1
    51   28   30 1
    52   28   31 1
    53   30   54 1
    54   30   55 1
    55   30   56 1
    56   31   32 1
    57   31   57 1
    58   31   58 1
    59   32   33 1
    60   33   59 1
    61   33   60 1
    62   33   61 1
@<TRIPOS>MOLECULE
ZINC35842572
   74    76     0     0     0
SMALL
USER_CHARGES

@<TRIPOS>ATOM
      1 C1          1.4168    2.1714    1.1731 C.3       1 <0>        -0.1657
      2 C2          1.2592    2.6912   -0.2572 C.3       1 <0>        -0.1189
      3 C3          1.5735    4.1881   -0.2934 C.3       1 <0>        -0.1483
      4 C4          2.2245    1.9449   -1.1803 C.3       1 <0>         0.0892
      5 H1          2.1764    2.3751   -2.1807 H         1 <0>         0.1187
      6 C5          1.8324    0.4673   -1.2411 C.3       1 <0>        -0.0675
      7 N1          2.6409   -0.2123   -2.2621 N.4       1 <0>        -0.3612
      8 C6          4.0507   -0.2137   -1.8494 C.3       1 <0>        -0.0397
      9 C7          4.1998   -1.0013   -0.5462 C.3       1 <0>        -0.1454
     10 C8          5.6682   -1.0028   -0.1163 C.3       1 <0>         0.0638
     11 O1          5.8074   -1.7385    1.1009 O.3       1 <0>        -0.3895
     12 C9          7.1479   -1.8014    1.5919 C.3       1 <0>         0.0300
     13 C10         2.5065    0.4940   -3.5432 C.3       1 <0>        -0.0506
     14 C11         1.0924    0.3576   -4.0460 C.2       1 <0>         0.5035
     15 O2          0.2679   -0.2362   -3.3837 O.2       1 <0>        -0.5190
     16 N2          0.7439    0.8956   -5.2315 N.am      1 <0>        -0.5796
     17 C12        -0.6546    0.8655   -5.6668 C.3       1 <0>         0.1138
     18 C13        -1.3691    2.1258   -5.1748 C.3       1 <0>        -0.0493
     19 C14        -2.8077    2.0948   -5.6226 C.2       1 <0>        -0.1847
     20 C15        -3.3122    2.6645   -6.7284 C.2       1 <0>         0.0663
     21 N3         -4.6574    2.4257   -6.8042 N.pl3     1 <0>        -0.5925
     22 H2         -5.2395    2.7372   -7.5148 H         1 <0>         0.4194
     23 C16        -5.0617    1.6774   -5.7214 C.ar      1 <0>         0.0951
     24 C17        -3.9197    1.4319   -4.9370 C.ar      1 <0>        -0.1002
     25 C18        -4.0281    0.6827   -3.7642 C.ar      1 <0>        -0.0742
     26 C19        -5.2443    0.1878   -3.3853 C.ar      1 <0>        -0.1414
     27 C20        -6.3731    0.4237   -4.1576 C.ar      1 <0>        -0.0958
     28 C21        -6.2903    1.1684   -5.3140 C.ar      1 <0>        -0.1271
     29 C22         1.7636    1.5105   -6.0850 C.3       1 <0>         0.1362
     30 C23         2.2265    0.5115   -7.1140 C.ar      1 <0>        -0.1188
     31 C24         3.2407   -0.3765   -6.8075 C.ar      1 <0>        -0.1029
     32 C25         3.6656   -1.2930   -7.7508 C.ar      1 <0>        -0.1066
     33 C26         3.0758   -1.3215   -9.0020 C.ar      1 <0>        -0.0234
     34 C27         2.0608   -0.4325   -9.3081 C.ar      1 <0>        -0.1018
     35 C28         1.6329    0.4797   -8.3620 C.ar      1 <0>        -0.0837
     36 Cl1         3.6094   -2.4719  -10.1876 Cl        1 <0>        -0.0511
     37 O3          3.5556    2.0641   -0.6742 O.3       1 <0>        -0.5468
     38 H3          1.1929    1.1050    1.1989 H         1 <0>         0.0571
     39 H4          2.4407    2.3359    1.5087 H         1 <0>         0.0640
     40 H5          0.7290    2.7031    1.8307 H         1 <0>         0.0759
     41 H6          0.2353    2.5267   -0.5928 H         1 <0>         0.0904
     42 H7          2.5974    4.3526    0.0422 H         1 <0>         0.0674
     43 H8          1.4612    4.5584   -1.3125 H         1 <0>         0.0579
     44 H9          0.8857    4.7198    0.3642 H         1 <0>         0.0671
     45 H10         2.0091    0.0042   -0.2703 H         1 <0>         0.1411
     46 H11         0.7765    0.3818   -1.4976 H         1 <0>         0.1608
     47 H12         4.6565   -0.6795   -2.6267 H         1 <0>         0.1296
     48 H13         4.3849    0.8121   -1.6941 H         1 <0>         0.1714
     49 H14         3.5941   -0.5356    0.2312 H         1 <0>         0.0907
     50 H15         3.8656   -2.0272   -0.7014 H         1 <0>         0.0948
     51 H16         6.2739   -1.4686   -0.8936 H         1 <0>         0.0598
     52 H17         6.0023    0.0230    0.0389 H         1 <0>         0.0627
     53 H18         7.1692   -2.3764    2.5177 H         1 <0>         0.0953
     54 H19         7.7843   -2.2837    0.8500 H         1 <0>         0.0476
     55 H20         7.5128   -0.7921    1.7825 H         1 <0>         0.0482
     56 H21         2.7421    1.5490   -3.4029 H         1 <0>         0.1655
     57 H22         3.1939    0.0618   -4.2703 H         1 <0>         0.1561
     58 H23        -0.6956    0.8261   -6.7554 H         1 <0>         0.0896
     59 H24        -1.1452   -0.0154   -5.2527 H         1 <0>         0.0964
     60 H25        -1.3282    2.1651   -4.0863 H         1 <0>         0.0718
     61 H26        -0.8786    3.0066   -5.5890 H         1 <0>         0.0730
     62 H27        -2.7410    3.2283   -7.4511 H         1 <0>         0.1694
     63 H28        -3.1539    0.4945   -3.1585 H         1 <0>         0.1178
     64 H29        -5.3277   -0.3918   -2.4778 H         1 <0>         0.1226
     65 H30        -7.3271    0.0254   -3.8454 H         1 <0>         0.1278
     66 H31        -7.1742    1.3455   -5.9088 H         1 <0>         0.1222
     67 H32         1.3405    2.3802   -6.5876 H         1 <0>         0.1094
     68 H33         2.6106    1.8208   -5.4731 H         1 <0>         0.0931
     69 H34         3.7013   -0.3539   -5.8309 H         1 <0>         0.1187
     70 H35         4.4582   -1.9864   -7.5114 H         1 <0>         0.1383
     71 H36         1.6002   -0.4541  -10.2847 H         1 <0>         0.1413
     72 H37         0.8374    1.1706   -8.5993 H         1 <0>         0.1371
     73 H38         3.6911    1.6340    0.1813 H         1 <0>         0.3886
     74 H39         2.3202   -1.1632   -2.3671 H         1 <0>         0.4291
@<TRIPOS>BOND
     1    1    2 1
     2    1   38 1
     3    1   39 1
     4    1   40 1
     5    2    3 1
     6    2    4 1
     7    2   41 1
     8    3   42 1
     9    3   43 1
    10    3   44 1
    11    4    5 1
    12    4    6 1
    13    4   37 1
    14    6    7 1
    15    6   45 1
    16    6   46 1
    17    7    8 1
    18    7   13 1
    19    7   74 1
    20    8    9 1
    21    8   47 1
    22    8   48 1
    23    9   10 1
    24    9   49 1
    25    9   50 1
    26   10   11 1
    27   10   51 1
    28   10   52 1
    29   11   12 1
    30   12   53 1
    31   12   54 1
    32   12   55 1
    33   13   14 1
    34   13   56 1
    35   13   57 1
    36   14   15 2
    37   14   16 am
    38   16   17 1
    39   16   29 1
    40   17   18 1
    41   17   58 1
    42   17   59 1
    43   18   19 1
    44   18   60 1
    45   18   61 1
    46   19   24 1
    47   19   20 2
    48   20   21 1
    49   20   62 1
    50   21   22 1
    51   21   23 1
    52   23   28 ar
    53   23   24 ar
    54   24   25 ar
    55   25   26 ar
    56   25   63 1
    57   26   27 ar
    58   26   64 1
    59   27   28 ar
    60   27   65 1
    61   28   66 1
    62   29   30 1
    63   29   67 1
    64   29   68 1
    65   30   35 ar
    66   30   31 ar
    67   31   32 ar
    68   31   69 1
    69   32   33 ar
    70   32   70 1
    71   33   34 ar
    72   33   36 1
    73   34   35 ar
    74   34   71 1
    75   35   72 1
    76   37   73 1
@<TRIPOS>MOLECULE
ZINC40507159
   59    58     0     0     0
SMALL
USER_CHARGES

@<TRIPOS>ATOM
      1 C1          0.8974    2.3795   -0.7344 C.3       1 <0>        -0.1555
      2 C2          0.4165    0.9303   -0.6380 C.3       1 <0>        -0.1257
      3 C3          1.1271    0.0856   -1.6974 C.3       1 <0>        -0.1208
      4 C4          0.6461   -1.3637   -1.6011 C.3       1 <0>        -0.1151
      5 C5          1.3568   -2.2084   -2.6605 C.3       1 <0>        -0.0861
      6 H1          1.2022   -1.7636   -3.6435 H         1 <0>         0.0812
      7 C6          2.8547   -2.2577   -2.3529 C.3       1 <0>        -0.1203
      8 C7          3.5872   -2.9626   -3.4964 C.3       1 <0>        -0.1481
      9 C8          0.7864   -3.6280   -2.6477 C.3       1 <0>         0.0672
     10 O1          1.3400   -4.3736   -3.7338 O.3       1 <0>        -0.3635
     11 C9          0.8702   -5.7208   -3.8132 C.3       1 <0>         0.0288
     12 C10         1.5253   -6.4200   -5.0060 C.3       1 <0>         0.0857
     13 H2          2.6093   -6.3419   -4.9225 H         1 <0>         0.1312
     14 C11         1.1197   -7.8952   -5.0183 C.3       1 <0>        -0.0429
     15 N1          1.8416   -8.5926   -6.0909 N.4       1 <0>        -0.5032
     16 C12         1.4521  -10.0090   -6.1027 C.3       1 <0>        -0.0003
     17 C13         2.2040  -10.7353   -7.2198 C.3       1 <0>         0.0275
     18 O2          3.6039  -10.7306   -6.9331 O.3       1 <0>        -0.4023
     19 C14         4.4016  -11.3875   -7.9201 C.3       1 <0>         0.0639
     20 C15         5.8747  -11.3214   -7.5120 C.3       1 <0>        -0.1207
     21 C16         6.7287  -12.0248   -8.5687 C.3       1 <0>        -0.1239
     22 C17         8.2018  -11.9588   -8.1606 C.3       1 <0>        -0.1553
     23 O3          1.0949   -5.7975   -6.2182 O.3       1 <0>        -0.5435
     24 H3          1.9739    2.4170   -0.5670 H         1 <0>         0.0542
     25 H4          0.6699    2.7727   -1.7252 H         1 <0>         0.0541
     26 H5          0.3912    2.9813    0.0204 H         1 <0>         0.0557
     27 H6          0.6440    0.5371    0.3528 H         1 <0>         0.0611
     28 H7         -0.6599    0.8928   -0.8054 H         1 <0>         0.0607
     29 H8          0.8996    0.4788   -2.6883 H         1 <0>         0.0628
     30 H9          2.2035    0.1231   -1.5300 H         1 <0>         0.0665
     31 H10         0.8737   -1.7569   -0.6102 H         1 <0>         0.0651
     32 H11        -0.4303   -1.4011   -1.7685 H         1 <0>         0.0641
     33 H12         3.2376   -1.2427   -2.2472 H         1 <0>         0.0677
     34 H13         3.0172   -2.8058   -1.4248 H         1 <0>         0.0588
     35 H14         4.6634   -2.8641   -3.3539 H         1 <0>         0.0456
     36 H15         3.3169   -4.0185   -3.5048 H         1 <0>         0.0647
     37 H16         3.3032   -2.5073   -4.4451 H         1 <0>         0.0519
     38 H17         1.0421   -4.1138   -1.7060 H         1 <0>         0.0532
     39 H18        -0.2977   -3.5850   -2.7517 H         1 <0>         0.0522
     40 H19         1.1276   -6.2500   -2.8957 H         1 <0>         0.0670
     41 H20        -0.2122   -5.7212   -3.9414 H         1 <0>         0.0622
     42 H21         1.3684   -8.3484   -4.0587 H         1 <0>         0.1447
     43 H22         0.0464   -7.9755   -5.1908 H         1 <0>         0.1381
     44 H23         1.6114   -8.1731   -6.9792 H         1 <0>         0.4317
     45 H24         1.7008  -10.4622   -5.1431 H         1 <0>         0.1406
     46 H25         0.3789  -10.0893   -6.2752 H         1 <0>         0.1453
     47 H26         1.8503  -11.7642   -7.2865 H         1 <0>         0.0993
     48 H27         2.0255  -10.2276   -8.1677 H         1 <0>         0.0759
     49 H28         4.0935  -12.4299   -8.0013 H         1 <0>         0.0617
     50 H29         4.2687  -10.8933   -8.8825 H         1 <0>         0.0592
     51 H30         6.1828  -10.2791   -7.4307 H         1 <0>         0.0718
     52 H31         6.0076  -11.8156   -6.5496 H         1 <0>         0.0741
     53 H32         6.4206  -13.0672   -8.6499 H         1 <0>         0.0663
     54 H33         6.5959  -11.5306   -9.5311 H         1 <0>         0.0655
     55 H34         8.8103  -12.4599   -8.9134 H         1 <0>         0.0615
     56 H35         8.5099  -10.9164   -8.0794 H         1 <0>         0.0564
     57 H36         8.3347  -12.4530   -7.1982 H         1 <0>         0.0571
     58 H37         0.1387   -5.8294   -6.3587 H         1 <0>         0.3879
     59 H38         2.8351   -8.5183   -5.9312 H         1 <0>         0.4368
@<TRIPOS>BOND
     1    1    2 1
     2    1   24 1
     3    1   25 1
     4    1   26 1
     5    2    3 1
     6    2   27 1
     7    2   28 1
     8    3    4 1
     9    3   29 1
    10    3   30 1
    11    4    5 1
    12    4   31 1
    13    4   32 1
    14    5    6 1
    15    5    7 1
    16    5    9 1
    17    7    8 1
    18    7   33 1
    19    7   34 1
    20    8   35 1
    21    8   36 1
    22    8   37 1
    23    9   10 1
    24    9   38 1
    25    9   39 1
    26   10   11 1
    27   11   12 1
    28   11   40 1
    29   11   41 1
    30   12   13 1
    31   12   14 1
    32   12   23 1
    33   14   15 1
    34   14   42 1
    35   14   43 1
    36   15   16 1
    37   15   44 1
    38   15   59 1
    39   16   17 1
    40   16   45 1
    41   16   46 1
    42   17   18 1
    43   17   47 1
    44   17   48 1
    45   18   19 1
    46   19   20 1
    47   19   49 1
    48   19   50 1
    49   20   21 1
    50   20   51 1
    51   20   52 1
    52   21   22 1
    53   21   53 1
    54   21   54 1
    55   22   55 1
    56   22   56 1
    57   22   57 1
    58   23   58 1
@<TRIPOS>MOLECULE
ZINC04762633
   53    53     0     0     0
SMALL
USER_CHARGES
benzyl 1-[(1-carbamoyl-3-methylsulfanyl-propyl)carbamoyl]butylaminoformate
@<TRIPOS>ATOM
      1 C1         -0.7098   -2.6051    4.6024 C.3       1 <0>        -0.1530
      2 C2         -0.1873   -1.2211    4.2119 C.3       1 <0>        -0.1175
      3 C3         -0.6948   -0.1828    5.2145 C.3       1 <0>        -0.1286
      4 C4         -0.1723    1.2012    4.8240 C.3       1 <0>         0.1489
      5 H1          0.9143    1.1698    4.7433 H         1 <0>         0.1235
      6 C5         -0.5691    2.2034    5.8772 C.2       1 <0>         0.5236
      7 O1         -1.2632    3.1525    5.5801 O.2       1 <0>        -0.5254
      8 N1         -0.1525    2.0451    7.1491 N.am      1 <0>        -0.7039
      9 C6         -0.5382    3.0194    8.1729 C.3       1 <0>         0.1340
     10 H2         -1.5453    3.3824    7.9679 H         1 <0>         0.1222
     11 C7         -0.5068    2.3523    9.5494 C.3       1 <0>        -0.1078
     12 C8         -1.5739    1.2575    9.6101 C.3       1 <0>        -0.0886
     13 S1         -1.5367    0.4666   11.2421 S.3       1 <0>        -0.2585
     14 C9         -2.8426   -0.7892   11.1510 C.3       1 <0>        -0.1205
     15 C10         0.4266    4.1769    8.1535 C.2       1 <0>         0.5072
     16 O2          1.3458    4.1871    7.3625 O.2       1 <0>        -0.5267
     17 N2          0.2679    5.2010    9.0153 N.am      1 <0>        -0.8512
     18 N3         -0.7466    1.5941    3.5349 N.am      1 <0>        -0.6928
     19 C11        -0.1645    1.1929    2.3874 C.2       1 <0>         0.6538
     20 O3          0.8367    0.5052    2.4222 O.2       1 <0>        -0.5646
     21 O4         -0.6923    1.5541    1.2026 O.3       1 <0>        -0.3621
     22 C12        -0.0127    1.0858    0.0080 C.3       1 <0>         0.1310
     23 C13        -0.7416    1.5850   -1.2129 C.ar      1 <0>        -0.1023
     24 C14        -1.7499    0.8246   -1.7750 C.ar      1 <0>        -0.0930
     25 C15        -2.4217    1.2848   -2.8921 C.ar      1 <0>        -0.1238
     26 C16        -2.0785    2.5007   -3.4529 C.ar      1 <0>        -0.1069
     27 C17        -1.0663    3.2585   -2.8942 C.ar      1 <0>        -0.1233
     28 C18        -0.3980    2.8008   -1.7740 C.ar      1 <0>        -0.0925
     29 H3         -0.3482   -3.3448    3.8881 H         1 <0>         0.0559
     30 H4         -0.3537   -2.8596    5.6006 H         1 <0>         0.0534
     31 H5         -1.7998   -2.5969    4.5966 H         1 <0>         0.0507
     32 H6         -0.5434   -0.9667    3.2136 H         1 <0>         0.0651
     33 H7          0.9027   -1.2293    4.2177 H         1 <0>         0.0732
     34 H8         -0.3387   -0.4373    6.2128 H         1 <0>         0.0794
     35 H9         -1.7848   -0.1746    5.2087 H         1 <0>         0.0738
     36 H10         0.4027    1.2860    7.3867 H         1 <0>         0.4094
     37 H11         0.4759    1.9115    9.7172 H         1 <0>         0.0902
     38 H12        -0.7069    3.0977   10.3191 H         1 <0>         0.0977
     39 H13        -2.5566    1.6983    9.4423 H         1 <0>         0.0872
     40 H14        -1.3739    0.5121    8.8404 H         1 <0>         0.0866
     41 H15        -2.6158   -1.4917   10.3490 H         1 <0>         0.0780
     42 H16        -2.8979   -1.3252   12.0985 H         1 <0>         0.1044
     43 H17        -3.7986   -0.3054   10.9509 H         1 <0>         0.0779
     44 H18        -0.4674    5.1929    9.6480 H         1 <0>         0.4024
     45 H19         0.8888    5.9460    9.0029 H         1 <0>         0.4057
     46 H20        -1.5459    2.1431    3.5071 H         1 <0>         0.4162
     47 H21         0.0021   -0.0041    0.0020 H         1 <0>         0.0818
     48 H22         1.0099    1.4631    0.0003 H         1 <0>         0.0818
     49 H23        -2.0153   -0.1273   -1.3392 H         1 <0>         0.1248
     50 H24        -3.2122    0.6925   -3.3288 H         1 <0>         0.1263
     51 H25        -2.6009    2.8585   -4.3278 H         1 <0>         0.1253
     52 H26        -0.7979    4.2083   -3.3326 H         1 <0>         0.1264
     53 H27         0.3927    3.3928   -1.3375 H         1 <0>         0.1252
@<TRIPOS>BOND
     1    1    2 1
     2    1   29 1
     3    1   30 1
     4    1   31 1
     5    2    3 1
     6    2   32 1
     7    2   33 1
     8    3    4 1
     9    3   34 1
    10    3   35 1
    11    4    5 1
    12    4    6 1
    13    4   18 1
    14    6    7 2
    15    6    8 am
    16    8    9 1
    17    8   36 1
    18    9   10 1
    19    9   11 1
    20    9   15 1
    21   11   12 1
    22   11   37 1
    23   11   38 1
    24   12   13 1
    25   12   39 1
    26   12   40 1
    27   13   14 1
    28   14   41 1
    29   14   42 1
    30   14   43 1
    31   15   16 2
    32   15   17 am
    33   17   44 1
    34   17   45 1
    35   18   19 am
    36   18   46 1
    37   19   20 2
    38   19   21 1
    39   21   22 1
    40   22   23 1
    41   22   47 1
    42   22   48 1
    43   23   28 ar
    44   23   24 ar
    45   24   25 ar
    46   24   49 1
    47   25   26 ar
    48   25   50 1
    49   26   27 ar
    50   26   51 1
    51   27   28 ar
    52   27   52 1
    53   28   53 1
@<TRIPOS>MOLECULE
ZINC20806059
   61    63     0     0     0
SMALL
USER_CHARGES
methyl 4-[(E)-[[4-amino-5-[2-oxo-2-[(4-sec-butylphenyl)amino]ethyl]sulfanyl-1,2,4-triazol-3-yl]hydrazono]methyl]benzoate
@<TRIPOS>ATOM
      1 C1         -9.6451   21.4973   -1.8493 C.3       1 <0>        -0.1567
      2 C2         -8.9120   20.1582   -1.7483 C.3       1 <0>        -0.1164
      3 C3         -8.6866   19.8100   -0.2756 C.3       1 <0>        -0.0525
      4 H1         -9.6475   19.8091    0.2598 H         1 <0>         0.0778
      5 C4         -7.7422   20.8368    0.3525 C.3       1 <0>        -0.1470
      6 C5         -8.0757   18.4363   -0.1720 C.ar      1 <0>        -0.0884
      7 C6         -8.7369   17.4374    0.5189 C.ar      1 <0>        -0.0999
      8 C7         -8.1797   16.1774    0.6157 C.ar      1 <0>        -0.1182
      9 C8         -6.9541   15.9141    0.0182 C.ar      1 <0>         0.1409
     10 C9         -6.2899   16.9209   -0.6700 C.ar      1 <0>        -0.1395
     11 C10        -6.8553   18.1771   -0.7684 C.ar      1 <0>        -0.0967
     12 N1         -6.3868   14.6386    0.1144 N.am      1 <0>        -0.6780
     13 C11        -7.1777   13.5472    0.1093 C.2       1 <0>         0.5363
     14 O1         -8.3841   13.6726    0.1062 O.2       1 <0>        -0.5105
     15 C12        -6.5631   12.1713    0.1077 C.3       1 <0>        -0.1455
     16 S1         -7.8751   10.9244    0.1008 S.3       1 <0>         0.0785
     17 C13        -6.9015    9.4558    0.0999 C.2       1 <0>         0.1173
     18 N2         -5.5922    9.3897    0.1028 N.2       1 <0>        -0.2683
     19 N3         -5.2130    8.1619    0.1053 N.2       1 <0>        -0.2808
     20 C14        -6.2562    7.3696    0.0958 C.2       1 <0>         0.4445
     21 N4         -7.3706    8.1689    0.0954 N.pl3     1 <0>        -0.2407
     22 N5         -8.6758    7.7659    0.0906 N.3       1 <0>        -0.7683
     23 N6         -6.2372    5.9824    0.0928 N.pl3     1 <0>        -0.5561
     24 N7         -5.0145    5.2986    0.0937 N.2       1 <0>        -0.1780
     25 C15        -4.9967    3.9985    0.0908 C.2       1 <0>         0.0785
     26 C16        -3.7124    3.2803    0.0918 C.ar      1 <0>        -0.0086
     27 C17        -3.6931    1.8807    0.0887 C.ar      1 <0>        -0.1045
     28 C18        -2.5014    1.2147    0.0901 C.ar      1 <0>        -0.0555
     29 C19        -1.2996    1.9309    0.0940 C.ar      1 <0>        -0.1175
     30 C20        -1.3185    3.3298    0.1028 C.ar      1 <0>        -0.0615
     31 C21        -2.5098    3.9965    0.0962 C.ar      1 <0>        -0.0965
     32 C22        -0.0129    1.2113    0.0949 C.2       1 <0>         0.5068
     33 O2          0.0037   -0.0038    0.0923 O.2       1 <0>        -0.5038
     34 O3          1.1449    1.9010    0.0931 O.3       1 <0>        -0.3538
     35 C23         2.3734    1.1269    0.0879 C.3       1 <0>         0.0327
     36 H2         -9.8071   21.7476   -2.9081 H         1 <0>         0.0547
     37 H3         -9.0394   22.2836   -1.3752 H         1 <0>         0.0579
     38 H4        -10.6158   21.4234   -1.3373 H         1 <0>         0.0545
     39 H5         -9.5177   19.3719   -2.2224 H         1 <0>         0.0630
     40 H6         -7.9413   20.2321   -2.2604 H         1 <0>         0.0637
     41 H7         -7.5802   20.5864    1.4113 H         1 <0>         0.0557
     42 H8         -8.1881   21.8395    0.2769 H         1 <0>         0.0615
     43 H9         -6.7793   20.8227   -0.1791 H         1 <0>         0.0568
     44 H10        -9.6899   17.6430    0.9836 H         1 <0>         0.1240
     45 H11        -8.6968   15.3976    1.1551 H         1 <0>         0.1378
     46 H12        -5.3344   16.7205   -1.1320 H         1 <0>         0.1259
     47 H13        -6.3415   18.9592   -1.3076 H         1 <0>         0.1250
     48 H14        -5.2954   14.5267    0.1942 H         1 <0>         0.4400
     49 H15        -5.9375   12.0502   -0.7889 H         1 <0>         0.1330
     50 H16        -5.9427   12.0458    1.0073 H         1 <0>         0.1328
     51 H17        -8.9203    6.6934    0.0873 H         1 <0>         0.4403
     52 H18        -9.4824    8.5139    0.0901 H         1 <0>         0.4526
     53 H19        -7.1822    5.4194    0.0897 H         1 <0>         0.4114
     54 H20        -5.9417    3.4355    0.0876 H         1 <0>         0.1293
     55 H21        -4.6208    1.3278    0.0857 H         1 <0>         0.1394
     56 H22        -2.4864    0.1348    0.0877 H         1 <0>         0.1429
     57 H23        -0.3906    3.8823    0.1103 H         1 <0>         0.1433
     58 H24        -2.5243    5.0764    0.0985 H         1 <0>         0.1459
     59 H25         3.2365    1.8089    0.0869 H         1 <0>         0.1064
     60 H26         2.4046    0.4947   -0.8117 H         1 <0>         0.0660
     61 H27         2.4097    0.4908    0.9846 H         1 <0>         0.0660
@<TRIPOS>BOND
     1    1    2 1
     2    1   36 1
     3    1   37 1
     4    1   38 1
     5    2    3 1
     6    2   39 1
     7    2   40 1
     8    3    4 1
     9    3    5 1
    10    3    6 1
    11    5   41 1
    12    5   42 1
    13    5   43 1
    14    6   11 ar
    15    6    7 ar
    16    7    8 ar
    17    7   44 1
    18    8    9 ar
    19    8   45 1
    20    9   10 ar
    21    9   12 1
    22   10   11 ar
    23   10   46 1
    24   11   47 1
    25   12   13 am
    26   12   48 1
    27   13   14 2
    28   13   15 1
    29   15   16 1
    30   15   49 1
    31   15   50 1
    32   16   17 1
    33   17   21 1
    34   17   18 2
    35   18   19 1
    36   19   20 2
    37   20   21 1
    38   20   23 1
    39   21   22 1
    40   22   51 1
    41   22   52 1
    42   23   24 1
    43   23   53 1
    44   24   25 2
    45   25   26 1
    46   25   54 1
    47   26   31 ar
    48   26   27 ar
    49   27   28 ar
    50   27   55 1
    51   28   29 ar
    52   28   56 1
    53   29   30 ar
    54   29   32 1
    55   30   31 ar
    56   30   57 1
    57   31   58 1
    58   32   33 2
    59   32   34 1
    60   34   35 1
    61   35   59 1
    62   35   60 1
    63   35   61 1
@<TRIPOS>MOLECULE
ZINC36526783
   62    62     0     0     0
SMALL
USER_CHARGES

@<TRIPOS>ATOM
      1 C1          4.1641    0.9608   -0.9709 C.3       1 <0>        -0.1534
      2 C2          4.3194   -0.5214   -0.6245 C.3       1 <0>        -0.1259
      3 C3          2.9768   -1.0763   -0.1445 C.3       1 <0>        -0.1184
      4 C4          3.1321   -2.5585    0.2019 C.3       1 <0>        -0.1110
      5 C5          1.7895   -3.1135    0.6818 C.3       1 <0>        -0.1016
      6 H1          1.4223   -2.5094    1.5115 H         1 <0>         0.0935
      7 C6          0.7797   -3.0699   -0.4668 C.3       1 <0>        -0.1105
      8 C7         -0.6000   -3.4811    0.0512 C.3       1 <0>        -0.1492
      9 C8          1.9693   -4.5382    1.1388 C.2       1 <0>         0.5334
     10 O1          1.8710   -5.4475    0.3423 O.2       1 <0>        -0.5448
     11 N1          2.2394   -4.8019    2.4326 N.am      1 <0>        -0.5808
     12 C9          2.4190   -3.7012    3.3825 C.3       1 <0>         0.0784
     13 C10         2.3533   -6.1893    2.8891 C.3       1 <0>         0.1781
     14 H2          2.0555   -6.8620    2.0848 H         1 <0>         0.1231
     15 C11         1.4549   -6.4017    4.0802 C.ar      1 <0>        -0.1584
     16 C12         1.9063   -7.1348    5.1673 C.ar      1 <0>         0.1506
     17 C13         1.0796   -7.3302    6.2634 C.ar      1 <0>        -0.1802
     18 C14        -0.1985   -6.7921    6.2725 C.ar      1 <0>         0.1488
     19 C15        -0.6497   -6.0582    5.1858 C.ar      1 <0>        -0.1812
     20 C16         0.1787   -5.8592    4.0915 C.ar      1 <0>         0.1673
     21 O2         -0.2617   -5.1361    3.0285 O.3       1 <0>        -0.4817
     22 O3         -1.0090   -6.9843    7.3462 O.3       1 <0>        -0.4936
     23 O4          3.1588   -7.6620    5.1584 O.3       1 <0>        -0.4791
     24 C17         3.7808   -6.4740    3.2795 C.2       1 <0>         0.5269
     25 O5          4.4636   -5.5964    3.7638 O.2       1 <0>        -0.5460
     26 N2          4.2986   -7.7039    3.0905 N.am      1 <0>        -0.7093
     27 C18         5.6511   -8.0098    3.5632 C.3       1 <0>         0.1257
     28 C19         5.9930   -9.4624    3.2255 C.3       1 <0>        -0.1321
     29 C20         7.4055   -9.7819    3.7191 C.3       1 <0>        -0.1209
     30 C21         7.7474  -11.2345    3.3814 C.3       1 <0>        -0.1534
     31 H3          3.8398    1.5087   -0.0861 H         1 <0>         0.0537
     32 H4          5.1206    1.3562   -1.3128 H         1 <0>         0.0537
     33 H5          3.4212    1.0735   -1.7605 H         1 <0>         0.0538
     34 H6          4.6436   -1.0692   -1.5092 H         1 <0>         0.0614
     35 H7          5.0623   -0.6340    0.1651 H         1 <0>         0.0610
     36 H8          2.6526   -0.5285    0.7402 H         1 <0>         0.0636
     37 H9          2.2339   -0.9637   -0.9342 H         1 <0>         0.0680
     38 H10         3.4563   -3.1064   -0.6829 H         1 <0>         0.0701
     39 H11         3.8750   -2.6712    0.9915 H         1 <0>         0.0662
     40 H12         0.7301   -2.0579   -0.8688 H         1 <0>         0.0729
     41 H13         1.0928   -3.7578   -1.2522 H         1 <0>         0.0740
     42 H14        -0.5373   -4.4694    0.5068 H         1 <0>         0.0533
     43 H15        -0.9390   -2.7593    0.7943 H         1 <0>         0.0536
     44 H16        -1.3065   -3.5076   -0.7784 H         1 <0>         0.0547
     45 H17         1.4558   -3.4375    3.8195 H         1 <0>         0.0567
     46 H18         3.1036   -4.0107    4.1722 H         1 <0>         0.0866
     47 H19         2.8311   -2.8363    2.8627 H         1 <0>         0.0709
     48 H20         1.4309   -7.9017    7.1097 H         1 <0>         0.1411
     49 H21        -1.6452   -5.6395    5.1927 H         1 <0>         0.1416
     50 H22        -0.7057   -5.6638    2.3507 H         1 <0>         0.3928
     51 H23        -0.9299   -6.3012    8.0260 H         1 <0>         0.3978
     52 H24         3.8197   -7.1135    5.6027 H         1 <0>         0.3954
     53 H25         3.7757   -8.3866    2.6416 H         1 <0>         0.4008
     54 H26         6.3651   -7.3458    3.0760 H         1 <0>         0.0645
     55 H27         5.6998   -7.8666    4.6427 H         1 <0>         0.0650
     56 H28         5.2790  -10.1264    3.7127 H         1 <0>         0.0714
     57 H29         5.9443   -9.6056    2.1460 H         1 <0>         0.0679
     58 H30         8.1195   -9.1179    3.2319 H         1 <0>         0.0640
     59 H31         7.4542   -9.6387    4.7986 H         1 <0>         0.0645
     60 H32         8.7537  -11.4621    3.7331 H         1 <0>         0.0560
     61 H33         7.0334  -11.8985    3.8686 H         1 <0>         0.0547
     62 H34         7.6987  -11.3777    2.3020 H         1 <0>         0.0544
@<TRIPOS>BOND
     1    1    2 1
     2    1   31 1
     3    1   32 1
     4    1   33 1
     5    2    3 1
     6    2   34 1
     7    2   35 1
     8    3    4 1
     9    3   36 1
    10    3   37 1
    11    4    5 1
    12    4   38 1
    13    4   39 1
    14    5    6 1
    15    5    7 1
    16    5    9 1
    17    7    8 1
    18    7   40 1
    19    7   41 1
    20    8   42 1
    21    8   43 1
    22    8   44 1
    23    9   10 2
    24    9   11 am
    25   11   12 1
    26   11   13 1
    27   12   45 1
    28   12   46 1
    29   12   47 1
    30   13   14 1
    31   13   15 1
    32   13   24 1
    33   15   20 ar
    34   15   16 ar
    35   16   17 ar
    36   16   23 1
    37   17   18 ar
    38   17   48 1
    39   18   19 ar
    40   18   22 1
    41   19   20 ar
    42   19   49 1
    43   20   21 1
    44   21   50 1
    45   22   51 1
    46   23   52 1
    47   24   25 2
    48   24   26 am
    49   26   27 1
    50   26   53 1
    51   27   28 1
    52   27   54 1
    53   27   55 1
    54   28   29 1
    55   28   56 1
    56   28   57 1
    57   29   30 1
    58   29   58 1
    59   29   59 1
    60   30   60 1
    61   30   61 1
    62   30   62 1
@<TRIPOS>MOLECULE
ZINC56710795
   51    51     0     0     0
SMALL
USER_CHARGES

@<TRIPOS>ATOM
      1 C1          0.0635    1.5281    0.0541 C.3       1 <0>        -0.1530
      2 C2          0.0712   -0.0018    0.0388 C.3       1 <0>        -0.1228
      3 C3          0.7827   -0.4956   -1.2226 C.3       1 <0>        -0.1197
      4 C4          0.7904   -2.0255   -1.2379 C.3       1 <0>         0.0619
      5 O1          1.4548   -2.4867   -2.4159 O.3       1 <0>        -0.3897
      6 C5          1.5174   -3.9099   -2.5285 C.3       1 <0>         0.0664
      7 C6          2.2459   -4.2878   -3.8198 C.3       1 <0>        -0.1313
      8 C7          2.3129   -5.8116   -3.9403 C.3       1 <0>         0.1403
      9 N1          3.0104   -6.1735   -5.1767 N.am      1 <0>        -0.7406
     10 C8          3.1890   -7.4709   -5.4947 C.2       1 <0>         0.7039
     11 O2          2.7712   -8.3412   -4.7553 O.2       1 <0>        -0.5714
     12 N2          3.8307   -7.8039   -6.6322 N.am      1 <0>        -0.6793
     13 C9          4.1207   -9.1475   -6.9056 C.ar      1 <0>         0.1309
     14 C10         4.2382  -10.0585   -5.8643 C.ar      1 <0>        -0.0853
     15 C11         4.5234  -11.3822   -6.1344 C.ar      1 <0>        -0.1926
     16 C12         4.6931  -11.8020   -7.4459 C.ar      1 <0>         0.1121
     17 C13         4.5758  -10.8925   -8.4864 C.ar      1 <0>        -0.1259
     18 C14         4.2848   -9.5693   -8.2179 C.ar      1 <0>        -0.0773
     19 C15         4.1512   -8.5824   -9.3490 C.3       1 <0>        -0.1158
     20 O3          4.9748  -13.1055   -7.7111 O.3       1 <0>        -0.2905
     21 C16         5.0818  -13.9870   -6.5915 C.3       1 <0>         0.0395
     22 C17         5.3957  -15.3790   -7.0762 C.2       1 <0>         0.5195
     23 O4          5.5159  -15.5949   -8.2636 O.2       1 <0>        -0.5175
     24 N3          5.5427  -16.3839   -6.1902 N.am      1 <0>        -0.8506
     25 H1          1.0893    1.8967    0.0476 H         1 <0>         0.0555
     26 H2         -0.4609    1.8977   -0.8271 H         1 <0>         0.0555
     27 H3         -0.4433    1.8799    0.9527 H         1 <0>         0.0565
     28 H4          0.5956   -0.3713    0.9200 H         1 <0>         0.0634
     29 H5         -0.9545   -0.3703    0.0452 H         1 <0>         0.0634
     30 H6          0.2582   -0.1260   -2.1038 H         1 <0>         0.0707
     31 H7          1.8084   -0.1270   -1.2290 H         1 <0>         0.0707
     32 H8          1.3148   -2.3950   -0.3567 H         1 <0>         0.0495
     33 H9         -0.2354   -2.3941   -1.2314 H         1 <0>         0.0496
     34 H10         2.0569   -4.3185   -1.6740 H         1 <0>         0.0534
     35 H11         0.5068   -4.3176   -2.5488 H         1 <0>         0.0535
     36 H12         1.7064   -3.8792   -4.6742 H         1 <0>         0.0794
     37 H13         3.2565   -3.8801   -3.7995 H         1 <0>         0.0795
     38 H14         2.8524   -6.2202   -3.0858 H         1 <0>         0.0717
     39 H15         1.3022   -6.2193   -3.9606 H         1 <0>         0.0717
     40 H16         3.3437   -5.4792   -5.7665 H         1 <0>         0.3996
     41 H17         4.0918   -7.1135   -7.2616 H         1 <0>         0.4071
     42 H18         4.1069   -9.7318   -4.8434 H         1 <0>         0.1515
     43 H19         4.6149  -12.0909   -5.3246 H         1 <0>         0.1301
     44 H20         4.7083  -11.2198   -9.5070 H         1 <0>         0.1372
     45 H21         5.1243   -8.1397   -9.5618 H         1 <0>         0.0752
     46 H22         3.7835   -9.0958  -10.2375 H         1 <0>         0.0761
     47 H23         3.4493   -7.7981   -9.0659 H         1 <0>         0.0648
     48 H24         5.8795  -13.6430   -5.9332 H         1 <0>         0.0948
     49 H25         4.1386  -13.9965   -6.0452 H         1 <0>         0.0951
     50 H26         5.4466  -16.2112   -5.2406 H         1 <0>         0.4037
     51 H27         5.7447  -17.2798   -6.5022 H         1 <0>         0.4098
@<TRIPOS>BOND
     1    1    2 1
     2    1   25 1
     3    1   26 1
     4    1   27 1
     5    2    3 1
     6    2   28 1
     7    2   29 1
     8    3    4 1
     9    3   30 1
    10    3   31 1
    11    4    5 1
    12    4   32 1
    13    4   33 1
    14    5    6 1
    15    6    7 1
    16    6   34 1
    17    6   35 1
    18    7    8 1
    19    7   36 1
    20    7   37 1
    21    8    9 1
    22    8   38 1
    23    8   39 1
    24    9   10 am
    25    9   40 1
    26   10   11 2
    27   10   12 am
    28   12   13 1
    29   12   41 1
    30   13   18 ar
    31   13   14 ar
    32   14   15 ar
    33   14   42 1
    34   15   16 ar
    35   15   43 1
    36   16   17 ar
    37   16   20 1
    38   17   18 ar
    39   17   44 1
    40   18   19 1
    41   19   45 1
    42   19   46 1
    43   19   47 1
    44   20   21 1
    45   21   22 1
    46   21   48 1
    47   21   49 1
    48   22   23 2
    49   22   24 am
    50   24   50 1
    51   24   51 1
@<TRIPOS>MOLECULE
ZINC59887729
   63    65     0     0     0
SMALL
USER_CHARGES

@<TRIPOS>ATOM
      1 C1          2.2935    1.4448    1.5407 C.3       1 <0>        -0.1553
      2 C2          2.1571   -0.0694    1.7129 C.3       1 <0>        -0.1163
      3 C3          0.7672   -0.5120    1.2513 C.3       1 <0>        -0.0516
      4 H1          0.5991   -0.1740    0.2288 H         1 <0>         0.0773
      5 C4         -0.2934    0.0970    2.1706 C.3       1 <0>        -0.1471
      6 C5          0.6752   -2.0153    1.3049 C.ar      1 <0>        -0.0878
      7 C6          0.8492   -2.6747    2.5079 C.ar      1 <0>        -0.0938
      8 C7          0.7655   -4.0522    2.5604 C.ar      1 <0>        -0.1159
      9 C8          0.5058   -4.7752    1.4035 C.ar      1 <0>         0.1389
     10 C9          0.3310   -4.1099    0.1970 C.ar      1 <0>        -0.1401
     11 C10         0.4112   -2.7319    0.1521 C.ar      1 <0>        -0.0985
     12 N1          0.4208   -6.1710    1.4532 N.am      1 <0>        -0.6674
     13 C11        -0.0725   -6.7774    2.5511 C.2       1 <0>         0.5362
     14 O1         -0.5309   -6.1131    3.4565 O.2       1 <0>        -0.4977
     15 C12        -0.0544   -8.2808    2.6538 C.3       1 <0>        -0.1639
     16 S1         -0.7817   -8.7875    4.2365 S.3       1 <0>         0.1161
     17 C13        -0.6886  -10.5468    4.2046 C.2       1 <0>         0.2164
     18 N2         -1.1164  -11.3651    5.1719 N.2       1 <0>        -0.5184
     19 C14        -0.8944  -12.6156    4.8244 C.2       1 <0>         0.5652
     20 N3         -0.3104  -12.6124    3.6070 N.pl3     1 <0>        -0.5062
     21 N4         -0.1934  -11.2661    3.2257 N.2       1 <0>        -0.3265
     22 N5         -1.2045  -13.7347    5.5741 N.pl3     1 <0>        -0.5526
     23 N6         -1.8130  -13.5914    6.8279 N.2       1 <0>        -0.2143
     24 C15        -2.1040  -14.6418    7.5315 C.2       1 <0>         0.1557
     25 C16        -2.7451  -14.4909    8.8526 C.2       1 <0>        -0.2093
     26 C17        -3.1046  -13.2758    9.4742 C.2       1 <0>         0.1255
     27 N7         -3.6454  -13.5549   10.6296 N.2       1 <0>        -0.2968
     28 N8         -3.6572  -14.9441   10.7993 N.pl3     1 <0>        -0.3597
     29 C18        -3.1092  -15.5103    9.7052 C.2       1 <0>         0.1260
     30 C19        -2.9261  -16.9860    9.4610 C.3       1 <0>        -0.1008
     31 C20        -4.1801  -15.6610   11.9650 C.3       1 <0>         0.1318
     32 C21        -5.6614  -15.9763   11.7476 C.3       1 <0>         0.0617
     33 O2         -6.1715  -16.6756   12.8846 O.3       1 <0>        -0.5685
     34 C22        -2.8993  -11.8960    8.9041 C.3       1 <0>        -0.0784
     35 H2          1.5344    1.9483    2.1394 H         1 <0>         0.0576
     36 H3          3.2837    1.7601    1.8696 H         1 <0>         0.0543
     37 H4          2.1595    1.7046    0.4907 H         1 <0>         0.0537
     38 H5          2.9162   -0.5729    1.1142 H         1 <0>         0.0625
     39 H6          2.2911   -0.3292    2.7629 H         1 <0>         0.0639
     40 H7         -0.1254   -0.2411    3.1932 H         1 <0>         0.0572
     41 H8         -0.2269    1.1842    2.1318 H         1 <0>         0.0608
     42 H9         -1.2836   -0.2184    1.8418 H         1 <0>         0.0556
     43 H10         1.0512   -2.1119    3.4072 H         1 <0>         0.1255
     44 H11         0.9022   -4.5667    3.5001 H         1 <0>         0.1352
     45 H12         0.1292   -4.6694   -0.7045 H         1 <0>         0.1254
     46 H13         0.2713   -2.2136   -0.7850 H         1 <0>         0.1256
     47 H14         0.7168   -6.7021    0.6974 H         1 <0>         0.4135
     48 H15        -0.6330   -8.7079    1.8347 H         1 <0>         0.1250
     49 H16         0.9743   -8.6366    2.5962 H         1 <0>         0.1261
     50 H17        -1.0009  -14.6193    5.2320 H         1 <0>         0.3968
     51 H18        -1.8773  -15.6267    7.1507 H         1 <0>         0.1180
     52 H19        -1.9565  -17.3006    9.8470 H         1 <0>         0.0894
     53 H20        -3.7162  -17.5391    9.9688 H         1 <0>         0.0774
     54 H21        -2.9731  -17.1857    8.3904 H         1 <0>         0.0896
     55 H22        -3.6266  -16.5905   12.0983 H         1 <0>         0.1039
     56 H23        -4.0674  -15.0404   12.8539 H         1 <0>         0.1084
     57 H24        -6.2149  -15.0468   11.6143 H         1 <0>         0.0585
     58 H25        -5.7741  -16.5969   10.8586 H         1 <0>         0.0518
     59 H26        -7.1075  -16.9083   12.8159 H         1 <0>         0.3911
     60 H27        -3.7750  -11.6095    8.3217 H         1 <0>         0.0795
     61 H28        -2.7551  -11.1846    9.7172 H         1 <0>         0.0698
     62 H29        -2.0193  -11.8959    8.2609 H         1 <0>         0.1022
     63 H30        -0.0306  -13.3874    3.0951 H         1 <0>         0.4380
@<TRIPOS>BOND
     1    1    2 1
     2    1   35 1
     3    1   36 1
     4    1   37 1
     5    2    3 1
     6    2   38 1
     7    2   39 1
     8    3    4 1
     9    3    5 1
    10    3    6 1
    11    5   40 1
    12    5   41 1
    13    5   42 1
    14    6   11 ar
    15    6    7 ar
    16    7    8 ar
    17    7   43 1
    18    8    9 ar
    19    8   44 1
    20    9   10 ar
    21    9   12 1
    22   10   11 ar
    23   10   45 1
    24   11   46 1
    25   12   13 am
    26   12   47 1
    27   13   14 2
    28   13   15 1
    29   15   16 1
    30   15   48 1
    31   15   49 1
    32   16   17 1
    33   17   21 2
    34   17   18 1
    35   18   19 2
    36   19   20 1
    37   19   22 1
    38   20   21 1
    39   20   63 1
    40   22   23 1
    41   22   50 1
    42   23   24 2
    43   24   25 1
    44   24   51 1
    45   25   29 2
    46   25   26 1
    47   26   27 2
    48   26   34 1
    49   27   28 1
    50   28   29 1
    51   28   31 1
    52   29   30 1
    53   30   52 1
    54   30   53 1
    55   30   54 1
    56   31   32 1
    57   31   55 1
    58   31   56 1
    59   32   33 1
    60   32   57 1
    61   32   58 1
    62   33   59 1
    63   34   60 1
    64   34   61 1
    65   34   62 1
@<TRIPOS>MOLECULE
ZINC01591941
   67    69     0     0     0
SMALL
USER_CHARGES
1-[2-(4-chlorophenyl)-4-quinolyl]-2-(4-diethylamino-1-methyl-butyl)amino-ethanol
@<TRIPOS>ATOM
      1 C1         -3.8464   -2.0412    6.1283 C.3       1 <0>        -0.1890
      2 C2         -2.8398   -2.7586    5.2266 C.3       1 <0>        -0.0149
      3 C3         -4.5443   -4.2581    4.3848 C.3       1 <0>        -0.0130
      4 C4         -3.8579   -5.5521    4.8268 C.3       1 <0>        -0.1905
      5 C5         -4.1165   -2.1575    3.2591 C.3       1 <0>        -0.0114
      6 C6         -3.0011   -1.2744    2.6961 C.3       1 <0>        -0.1680
      7 C7         -3.6159   -0.1255    1.8943 C.3       1 <0>        -0.1454
      8 C8         -2.5006    0.7576    1.3313 C.3       1 <0>         0.0302
      9 H1         -1.8559    1.0912    2.1444 H         1 <0>         0.1437
     10 C9         -3.1151    1.9740    0.6358 C.3       1 <0>        -0.1872
     11 C10        -0.3480    0.5298    0.2463 C.3       1 <0>        -0.0434
     12 C11         0.4446   -0.2958   -0.7691 C.3       1 <0>         0.1367
     13 H2          0.4185   -1.3470   -0.4822 H         1 <0>         0.1350
     14 C12         1.8737    0.1816   -0.7986 C.ar      1 <0>        -0.0875
     15 C13         2.2856    1.0990   -1.7191 C.ar      1 <0>        -0.1327
     16 C14         3.6216    1.5291   -1.7270 C.ar      1 <0>         0.2146
     17 N1          4.5003    1.0650   -0.8591 N.ar      1 <0>        -0.4469
     18 C15         4.1531    0.1653    0.0647 C.ar      1 <0>         0.1412
     19 C16         2.8171   -0.3044    0.1282 C.ar      1 <0>        -0.0912
     20 C17         2.4591   -1.2456    1.1062 C.ar      1 <0>        -0.1298
     21 C18         3.3973   -1.6928    1.9861 C.ar      1 <0>        -0.0898
     22 C19         4.7100   -1.2290    1.9291 C.ar      1 <0>        -0.1003
     23 C20         5.0948   -0.3250    0.9874 C.ar      1 <0>        -0.0727
     24 C21         4.0554    2.5272   -2.7338 C.ar      1 <0>        -0.0721
     25 C22         3.1433    3.0250   -3.6633 C.ar      1 <0>        -0.0843
     26 C23         3.5508    3.9576   -4.5948 C.ar      1 <0>        -0.1135
     27 C24         4.8655    4.3915   -4.6142 C.ar      1 <0>        -0.0129
     28 C25         5.7767    3.8960   -3.6969 C.ar      1 <0>        -0.1119
     29 C26         5.3781    2.9670   -2.7580 C.ar      1 <0>        -0.0567
     30 Cl1         5.3734    5.5602   -5.7931 Cl        1 <0>        -0.0483
     31 O1         -0.1360   -0.1414   -2.0657 O.3       1 <0>        -0.5416
     32 H3         -3.3327   -1.6485    7.0058 H         1 <0>         0.1099
     33 H4         -4.3059   -1.2199    5.5784 H         1 <0>         0.0782
     34 H5         -4.6176   -2.7442    6.4431 H         1 <0>         0.0850
     35 H6         -2.3973   -3.5942    5.7689 H         1 <0>         0.1346
     36 H7         -2.0558   -2.0615    4.9307 H         1 <0>         0.1250
     37 H8         -5.1582   -3.8756    5.2001 H         1 <0>         0.1362
     38 H9         -5.1747   -4.4589    3.5185 H         1 <0>         0.1310
     39 H10        -3.2460   -5.9360    4.0105 H         1 <0>         0.0807
     40 H11        -3.2253   -5.3508    5.6914 H         1 <0>         0.0811
     41 H12        -4.6132   -6.2913    5.0935 H         1 <0>         0.1112
     42 H13        -4.7575   -1.5627    3.9097 H         1 <0>         0.1425
     43 H14        -4.7081   -2.5630    2.4383 H         1 <0>         0.1355
     44 H15        -2.3602   -1.8693    2.0454 H         1 <0>         0.0794
     45 H16        -2.4095   -0.8690    3.5168 H         1 <0>         0.1046
     46 H17        -4.2569    0.4694    2.5450 H         1 <0>         0.1265
     47 H18        -4.2076   -0.5310    1.0735 H         1 <0>         0.1038
     48 H19        -3.7028    2.5450    1.3545 H         1 <0>         0.1119
     49 H20        -2.3205    2.6031    0.2347 H         1 <0>         0.0872
     50 H21        -3.7598    1.6404   -0.1773 H         1 <0>         0.0883
     51 H22         0.1458    0.4835    1.2169 H         1 <0>         0.1461
     52 H23        -0.3970    1.5664   -0.0873 H         1 <0>         0.1446
     53 H24         1.5854    1.4941   -2.4402 H         1 <0>         0.1433
     54 H25         1.4451   -1.6134    1.1603 H         1 <0>         0.1162
     55 H26         3.1203   -2.4170    2.7380 H         1 <0>         0.1316
     56 H27         5.4358   -1.5993    2.6380 H         1 <0>         0.1409
     57 H28         6.1163    0.0243    0.9568 H         1 <0>         0.1471
     58 H29         2.1186    2.6839   -3.6518 H         1 <0>         0.1316
     59 H30         2.8439    4.3472   -5.3124 H         1 <0>         0.1427
     60 H31         6.8012    4.2371   -3.7166 H         1 <0>         0.1444
     61 H32         6.0897    2.5809   -2.0431 H         1 <0>         0.1467
     62 H33        -0.1465    0.7711   -2.3858 H         1 <0>         0.3930
     63 N2         -3.5067   -3.2736    4.0123 N.4       1 <0>        -0.3968
     64 H34        -2.8077   -3.7344    3.4179 H         1 <0>         0.4262
     65 N3         -1.7122   -0.0205    0.3572 N.4       1 <0>        -0.5179
     66 H35        -2.1703    0.0224   -0.5607 H         1 <0>         0.4405
     67 H36        -1.6590   -0.9976    0.6679 H         1 <0>         0.4210
@<TRIPOS>BOND
     1    1    2 1
     2    1   32 1
     3    1   33 1
     4    1   34 1
     5    2   35 1
     6    2   36 1
     7    2   63 1
     8    3    4 1
     9    3   37 1
    10    3   38 1
    11    3   63 1
    12    4   39 1
    13    4   40 1
    14    4   41 1
    15    5    6 1
    16    5   42 1
    17    5   43 1
    18    5   63 1
    19    6    7 1
    20    6   44 1
    21    6   45 1
    22    7    8 1
    23    7   46 1
    24    7   47 1
    25    8    9 1
    26    8   10 1
    27    8   65 1
    28   10   48 1
    29   10   49 1
    30   10   50 1
    31   11   12 1
    32   11   51 1
    33   11   52 1
    34   11   65 1
    35   12   13 1
    36   12   14 1
    37   12   31 1
    38   14   19 ar
    39   14   15 ar
    40   15   16 ar
    41   15   53 1
    42   16   17 ar
    43   16   24 1
    44   17   18 ar
    45   18   23 ar
    46   18   19 ar
    47   19   20 ar
    48   20   21 ar
    49   20   54 1
    50   21   22 ar
    51   21   55 1
    52   22   23 ar
    53   22   56 1
    54   23   57 1
    55   24   29 ar
    56   24   25 ar
    57   25   26 ar
    58   25   58 1
    59   26   27 ar
    60   26   59 1
    61   27   28 ar
    62   27   30 1
    63   28   29 ar
    64   28   60 1
    65   29   61 1
    66   31   62 1
    67   63   64 1
    68   65   66 1
    69   65   67 1
@<TRIPOS>MOLECULE
ZINC14953517
   65    67     0     0     0
SMALL
USER_CHARGES
(2S)-1-(benzyl-methyl-amino)-3-[2-methoxy-5-[[(5-methyl-2-thienyl)methylamino]methyl]phenoxy]propan-2-ol
@<TRIPOS>ATOM
      1 C1          5.2051   -5.4204   -6.8095 C.3       1 <0>        -0.0928
      2 C2          5.0892   -4.7635   -5.4582 C.2       1 <0>        -0.0731
      3 C3          5.6000   -3.5805   -5.0376 C.2       1 <0>        -0.1972
      4 C4          5.3637   -3.1724   -3.7382 C.2       1 <0>        -0.0694
      5 C5          4.6282   -3.9673   -2.9230 C.2       1 <0>        -0.2889
      6 S1          4.2494   -5.3446   -3.9938 S.3       1 <0>         0.0922
      7 C6          4.2373   -3.7483   -1.4842 C.3       1 <0>         0.1047
      8 C7          2.5425   -2.8000   -0.0381 C.3       1 <0>         0.0531
      9 C8          1.2274   -2.0643   -0.0211 C.ar      1 <0>        -0.1700
     10 C9          0.0406   -2.7733   -0.0131 C.ar      1 <0>        -0.0716
     11 C10        -1.1684   -2.1031    0.0020 C.ar      1 <0>        -0.1735
     12 C11        -1.1925   -0.7177    0.0096 C.ar      1 <0>         0.1488
     13 C12         0.0021   -0.0041    0.0020 C.ar      1 <0>         0.0967
     14 C13         1.2104   -0.6820   -0.0189 C.ar      1 <0>        -0.1510
     15 O1         -0.0164    1.3557    0.0095 O.3       1 <0>        -0.2830
     16 C14         1.2479    2.0217    0.0010 C.3       1 <0>         0.0283
     17 C15         1.0269    3.5357    0.0112 C.3       1 <0>         0.0837
     18 H1          0.3831    3.8145   -0.8230 H         1 <0>         0.1366
     19 C16         2.3739    4.2486   -0.1235 C.3       1 <0>        -0.0381
     20 C17         1.4173    6.1336   -1.3043 C.3       1 <0>        -0.0538
     21 C18         3.4386    6.4199   -0.0025 C.3       1 <0>         0.0511
     22 C19         3.1730    7.8815    0.2509 C.ar      1 <0>        -0.1698
     23 C20         3.0457    8.7553   -0.8127 C.ar      1 <0>        -0.0955
     24 C21         2.7967   10.0951   -0.5804 C.ar      1 <0>        -0.1129
     25 C22         2.6859   10.5630    0.7157 C.ar      1 <0>        -0.0792
     26 C23         2.8189    9.6901    1.7793 C.ar      1 <0>        -0.1120
     27 C24         3.0622    8.3493    1.5469 C.ar      1 <0>        -0.0932
     28 O2          0.4064    3.9182    1.2403 O.3       1 <0>        -0.5389
     29 O3         -2.3810   -0.0568    0.0240 O.3       1 <0>        -0.2967
     30 C25        -3.5667   -0.8544    0.0311 C.3       1 <0>         0.0181
     31 H2          6.0894   -6.0573   -6.8292 H         1 <0>         0.0968
     32 H3          4.3176   -6.0250   -6.9968 H         1 <0>         0.0856
     33 H4          5.2919   -4.6541   -7.5798 H         1 <0>         0.0952
     34 H5          6.1825   -2.9657   -5.7077 H         1 <0>         0.1474
     35 H6          5.7588   -2.2340   -3.3780 H         1 <0>         0.1391
     36 H7          5.0057   -3.1582   -0.9847 H         1 <0>         0.1461
     37 H8          4.1367   -4.7117   -0.9843 H         1 <0>         0.1427
     38 H9          3.2992   -2.2034    0.4715 H         1 <0>         0.1368
     39 H10         2.4302   -3.7568    0.4718 H         1 <0>         0.1421
     40 H11         0.0580   -3.8532   -0.0191 H         1 <0>         0.1414
     41 H12        -2.0942   -2.6593    0.0075 H         1 <0>         0.1526
     42 H13         2.1389   -0.1305   -0.0297 H         1 <0>         0.1388
     43 H14         1.8173    1.7317    0.8840 H         1 <0>         0.0780
     44 H15         1.8003    1.7413   -0.8958 H         1 <0>         0.0799
     45 H16         3.0177    3.9698    0.7107 H         1 <0>         0.1360
     46 H17         2.8472    3.9569   -1.0610 H         1 <0>         0.1444
     47 H18         0.4463    5.6388   -1.3248 H         1 <0>         0.1234
     48 H19         1.2741    7.2137   -1.2717 H         1 <0>         0.1283
     49 H20         1.9791    5.8685   -2.2000 H         1 <0>         0.1251
     50 H21         4.0167    6.0070    0.8243 H         1 <0>         0.1341
     51 H22         4.0002    6.3081   -0.9300 H         1 <0>         0.1375
     52 H23         3.1366    8.3906   -1.8251 H         1 <0>         0.1309
     53 H24         2.6925   10.7770   -1.4114 H         1 <0>         0.1379
     54 H25         2.4952   11.6104    0.8972 H         1 <0>         0.1383
     55 H26         2.7324   10.0556    2.7919 H         1 <0>         0.1380
     56 H27         3.1661    7.6674    2.3779 H         1 <0>         0.1304
     57 H28         0.9246    3.7001    2.0271 H         1 <0>         0.3903
     58 H29        -4.4417   -0.2045    0.0425 H         1 <0>         0.1145
     59 H30        -3.5898   -1.4791   -0.8619 H         1 <0>         0.0644
     60 H31        -3.5732   -1.4880    0.9180 H         1 <0>         0.0655
     61 N1          2.9505   -3.0285   -1.4371 N.4       1 <0>        -0.5205
     62 H32         2.2322   -3.5873   -1.9124 H         1 <0>         0.4330
     63 H33         3.0508   -2.1240   -1.9127 H         1 <0>         0.4282
     64 N2          2.1459    5.7087   -0.0906 N.4       1 <0>        -0.3905
     65 H34         1.5813    5.9395    0.7353 H         1 <0>         0.4353
@<TRIPOS>BOND
     1    1    2 1
     2    1   31 1
     3    1   32 1
     4    1   33 1
     5    2    6 1
     6    2    3 2
     7    3    4 1
     8    3   34 1
     9    4    5 2
    10    4   35 1
    11    5    6 1
    12    5    7 1
    13    7   36 1
    14    7   37 1
    15    7   61 1
    16    8    9 1
    17    8   38 1
    18    8   39 1
    19    8   61 1
    20    9   14 ar
    21    9   10 ar
    22   10   11 ar
    23   10   40 1
    24   11   12 ar
    25   11   41 1
    26   12   13 ar
    27   12   29 1
    28   13   14 ar
    29   13   15 1
    30   14   42 1
    31   15   16 1
    32   16   17 1
    33   16   43 1
    34   16   44 1
    35   17   18 1
    36   17   19 1
    37   17   28 1
    38   19   45 1
    39   19   46 1
    40   19   64 1
    41   20   47 1
    42   20   48 1
    43   20   49 1
    44   20   64 1
    45   21   22 1
    46   21   50 1
    47   21   51 1
    48   21   64 1
    49   22   27 ar
    50   22   23 ar
    51   23   24 ar
    52   23   52 1
    53   24   25 ar
    54   24   53 1
    55   25   26 ar
    56   25   54 1
    57   26   27 ar
    58   26   55 1
    59   27   56 1
    60   28   57 1
    61   29   30 1
    62   30   58 1
    63   30   59 1
    64   30   60 1
    65   61   62 1
    66   61   63 1
    67   64   65 1
@<TRIPOS>MOLECULE
ZINC42562920
   53    53     0     0     0
SMALL
USER_CHARGES

@<TRIPOS>ATOM
      1 C1         -0.9452   -2.1789   -0.1988 C.3       1 <0>        -0.1780
      2 C2         -1.9119   -1.1189   -0.7304 C.3       1 <0>        -0.1576
      3 C3         -1.7323    0.1781    0.0612 C.3       1 <0>         0.0146
      4 H1         -0.6852    0.4794    0.0321 H         1 <0>         0.1521
      5 C4         -2.5968    1.2778   -0.5587 C.3       1 <0>        -0.1791
      6 N1         -2.1410   -0.0386    1.4554 N.4       1 <0>        -0.3826
      7 C5         -3.5257   -0.5279    1.4894 C.3       1 <0>        -0.0133
      8 C6         -3.5260   -2.0579    1.4973 C.3       1 <0>         0.0076
      9 O1         -2.9428   -2.5280    2.7143 O.3       1 <0>        -0.4021
     10 C7         -2.8942   -3.9520    2.8234 C.3       1 <0>         0.0285
     11 C8         -2.0508    1.2276    2.1946 C.3       1 <0>        -0.0103
     12 C9         -0.5849    1.6530    2.3005 C.3       1 <0>         0.0290
     13 O2         -0.1010    2.0209    1.0073 O.3       1 <0>        -0.3168
     14 C10         1.2159    2.3419    0.9096 C.ar      1 <0>         0.1289
     15 C11         2.0495    2.1983    2.0093 C.ar      1 <0>        -0.1995
     16 C12         3.3879    2.5249    1.9073 C.ar      1 <0>        -0.0656
     17 C13         3.8968    2.9950    0.7107 C.ar      1 <0>        -0.1320
     18 C14         3.0680    3.1395   -0.3865 C.ar      1 <0>        -0.0661
     19 C15         1.7301    2.8084   -0.2914 C.ar      1 <0>        -0.1383
     20 C16         5.3571    3.3510    0.6025 C.3       1 <0>        -0.1044
     21 C17         6.1510    2.1195    0.1620 C.3       1 <0>        -0.0058
     22 N2          7.5745    2.4665    0.0565 N.4       1 <0>        -0.6390
     23 H2         -1.1369   -3.1286   -0.6982 H         1 <0>         0.0836
     24 H3          0.0805   -1.8660   -0.3943 H         1 <0>         0.0716
     25 H4         -1.0905   -2.2973    0.8750 H         1 <0>         0.0539
     26 H5         -1.7039   -0.9332   -1.7841 H         1 <0>         0.1119
     27 H6         -2.9367   -1.4733   -0.6194 H         1 <0>         0.0916
     28 H7         -3.6459    0.9861   -0.5098 H         1 <0>         0.0786
     29 H8         -2.4521    2.2073   -0.0081 H         1 <0>         0.0862
     30 H9         -2.3083    1.4233   -1.5997 H         1 <0>         0.1047
     31 H10        -4.0191   -0.1598    2.3889 H         1 <0>         0.1413
     32 H11        -4.0595   -0.1690    0.6094 H         1 <0>         0.1484
     33 H12        -4.5507   -2.4214    1.4213 H         1 <0>         0.0984
     34 H13        -2.9462   -2.4257    0.6508 H         1 <0>         0.0916
     35 H14        -3.9059   -4.3548    2.7749 H         1 <0>         0.0577
     36 H15        -2.3014   -4.3591    2.0043 H         1 <0>         0.0512
     37 H16        -2.4384   -4.2282    3.7742 H         1 <0>         0.1010
     38 H17        -2.6152    1.9970    1.6676 H         1 <0>         0.1484
     39 H18        -2.4638    1.0948    3.1945 H         1 <0>         0.1550
     40 H19        -0.5017    2.5049    2.9755 H         1 <0>         0.1147
     41 H20         0.0070    0.8236    2.6876 H         1 <0>         0.0872
     42 H21         1.6523    1.8318    2.9443 H         1 <0>         0.1344
     43 H22         4.0372    2.4132    2.7630 H         1 <0>         0.1327
     44 H23         3.4678    3.5073   -1.3200 H         1 <0>         0.1375
     45 H24         1.0841    2.9173   -1.1500 H         1 <0>         0.1398
     46 H25         5.4837    4.1466   -0.1318 H         1 <0>         0.0995
     47 H26         5.7212    3.6903    1.5722 H         1 <0>         0.0985
     48 H27         6.0244    1.3239    0.8963 H         1 <0>         0.1336
     49 H28         5.7869    1.7802   -0.8077 H         1 <0>         0.1346
     50 H29         7.6916    3.2029   -0.6232 H         1 <0>         0.4374
     51 H30         7.9116    2.7806    0.9542 H         1 <0>         0.4371
     52 H31         8.0980    1.6543   -0.2339 H         1 <0>         0.4413
     53 H32        -1.5326   -0.7212    1.8820 H         1 <0>         0.4259
@<TRIPOS>BOND
     1    1    2 1
     2    1   23 1
     3    1   24 1
     4    1   25 1
     5    2    3 1
     6    2   26 1
     7    2   27 1
     8    3    4 1
     9    3    5 1
    10    3    6 1
    11    5   28 1
    12    5   29 1
    13    5   30 1
    14    6    7 1
    15    6   11 1
    16    6   53 1
    17    7    8 1
    18    7   31 1
    19    7   32 1
    20    8    9 1
    21    8   33 1
    22    8   34 1
    23    9   10 1
    24   10   35 1
    25   10   36 1
    26   10   37 1
    27   11   12 1
    28   11   38 1
    29   11   39 1
    30   12   13 1
    31   12   40 1
    32   12   41 1
    33   13   14 1
    34   14   19 ar
    35   14   15 ar
    36   15   16 ar
    37   15   42 1
    38   16   17 ar
    39   16   43 1
    40   17   18 ar
    41   17   20 1
    42   18   19 ar
    43   18   44 1
    44   19   45 1
    45   20   21 1
    46   20   46 1
    47   20   47 1
    48   21   22 1
    49   21   48 1
    50   21   49 1
    51   22   50 1
    52   22   51 1
    53   22   52 1
@<TRIPOS>MOLECULE
ZINC25702090
   58    58     0     0     0
SMALL
USER_CHARGES

@<TRIPOS>ATOM
      1 C1         -1.3062   -0.0495    0.2745 C.3       1 <0>        -0.1880
      2 C2         -0.2360   -1.1147    0.5209 C.3       1 <0>         0.0178
      3 C3          0.4118   -1.5040   -0.8094 C.3       1 <0>        -0.1976
      4 N1          0.7890   -0.5787    1.4264 N.4       1 <0>        -0.3779
      5 C4          0.1629   -0.1819    2.6946 C.3       1 <0>        -0.0478
      6 C5          1.2073    0.4843    3.5925 C.3       1 <0>        -0.0360
      7 N2          0.5885    0.8537    4.8726 N.4       1 <0>        -0.4985
      8 C6          1.5913    1.4933    5.7347 C.3       1 <0>        -0.0432
      9 C7          0.9468    1.8781    7.0679 C.3       1 <0>         0.0849
     10 H1          0.0722    2.5015    6.8822 H         1 <0>         0.1392
     11 C8          1.9556    2.6546    7.9168 C.3       1 <0>         0.0287
     12 O1          1.3194    3.1141    9.1110 O.3       1 <0>        -0.2998
     13 C9          2.0821    3.8267    9.9814 C.ar      1 <0>         0.1039
     14 C10         3.4152    4.0825    9.6872 C.ar      1 <0>        -0.1802
     15 C11         4.1973    4.8072   10.5679 C.ar      1 <0>        -0.0899
     16 C12         3.6593    5.2815   11.7461 C.ar      1 <0>        -0.0968
     17 C13         2.3183    5.0296   12.0521 C.ar      1 <0>        -0.1236
     18 C14         1.5283    4.3016   11.1573 C.ar      1 <0>        -0.0876
     19 C15         1.7396    5.5330   13.3082 C.2       1 <0>         0.3914
     20 O2          0.5765    5.3131   13.5709 O.2       1 <0>        -0.4440
     21 C16         2.5927    6.3218   14.2680 C.3       1 <0>        -0.2025
     22 O3          0.5494    0.6950    7.7639 O.3       1 <0>        -0.5403
     23 C17         1.8035   -1.6098    1.6827 C.3       1 <0>         0.0175
     24 C18         1.1306   -2.9823    1.7476 C.3       1 <0>        -0.1945
     25 C19         2.8361   -1.6010    0.5537 C.3       1 <0>        -0.2142
     26 H2         -0.8466    0.8298   -0.1769 H         1 <0>         0.0854
     27 H3         -2.0668   -0.4472   -0.3974 H         1 <0>         0.1161
     28 H4         -1.7678    0.2279    1.2222 H         1 <0>         0.0778
     29 H5         -0.6957   -1.9940    0.9722 H         1 <0>         0.1487
     30 H6          0.9956   -0.6652   -1.1885 H         1 <0>         0.0880
     31 H7          1.0659   -2.3627   -0.6575 H         1 <0>         0.0988
     32 H8         -0.3644   -1.7616   -1.5300 H         1 <0>         0.1137
     33 H9         -0.6466    0.5204    2.4960 H         1 <0>         0.1583
     34 H10        -0.2362   -1.0644    3.1946 H         1 <0>         0.1531
     35 H11         2.0278   -0.2103    3.7727 H         1 <0>         0.1532
     36 H12         1.5901    1.3794    3.1023 H         1 <0>         0.1570
     37 H13        -0.1710    1.4967    4.7059 H         1 <0>         0.4397
     38 H14         2.4118    0.7987    5.9148 H         1 <0>         0.1470
     39 H15         1.9741    2.3885    5.2445 H         1 <0>         0.1541
     40 H16         2.7894    2.0026    8.1771 H         1 <0>         0.0787
     41 H17         2.3256    3.5091    7.3503 H         1 <0>         0.0827
     42 H18         3.8430    3.7135    8.7668 H         1 <0>         0.1270
     43 H19         5.2332    5.0022   10.3324 H         1 <0>         0.1382
     44 H20         4.2733    5.8465   12.4318 H         1 <0>         0.1431
     45 H21         0.4907    4.1071   11.3849 H         1 <0>         0.1447
     46 H22         2.9644    7.2182   13.7714 H         1 <0>         0.0979
     47 H23         1.9960    6.6073   15.1343 H         1 <0>         0.0922
     48 H24         3.4348    5.7105   14.5923 H         1 <0>         0.0979
     49 H25         1.2787    0.0921    7.9630 H         1 <0>         0.3927
     50 H26         2.3000   -1.4033    2.6308 H         1 <0>         0.1311
     51 H27         0.7387   -3.2418    0.7642 H         1 <0>         0.0972
     52 H28         1.8605   -3.7305    2.0568 H         1 <0>         0.1119
     53 H29         0.3133   -2.9525    2.4682 H         1 <0>         0.0776
     54 H30         3.5487   -0.7930    0.7194 H         1 <0>         0.0859
     55 H31         3.3648   -2.5541    0.5374 H         1 <0>         0.1128
     56 H32         2.3305   -1.4497   -0.4000 H         1 <0>         0.1071
     57 H33         0.2342    0.0251    5.3264 H         1 <0>         0.4421
     58 H34         1.2263    0.2250    1.0012 H         1 <0>         0.4276
@<TRIPOS>BOND
     1    1    2 1
     2    1   26 1
     3    1   27 1
     4    1   28 1
     5    2    3 1
     6    2    4 1
     7    2   29 1
     8    3   30 1
     9    3   31 1
    10    3   32 1
    11    4    5 1
    12    4   23 1
    13    4   58 1
    14    5    6 1
    15    5   33 1
    16    5   34 1
    17    6    7 1
    18    6   35 1
    19    6   36 1
    20    7    8 1
    21    7   37 1
    22    7   57 1
    23    8    9 1
    24    8   38 1
    25    8   39 1
    26    9   10 1
    27    9   11 1
    28    9   22 1
    29   11   12 1
    30   11   40 1
    31   11   41 1
    32   12   13 1
    33   13   18 ar
    34   13   14 ar
    35   14   15 ar
    36   14   42 1
    37   15   16 ar
    38   15   43 1
    39   16   17 ar
    40   16   44 1
    41   17   18 ar
    42   17   19 1
    43   18   45 1
    44   19   20 2
    45   19   21 1
    46   21   46 1
    47   21   47 1
    48   21   48 1
    49   22   49 1
    50   23   24 1
    51   23   25 1
    52   23   50 1
    53   24   51 1
    54   24   52 1
    55   24   53 1
    56   25   54 1
    57   25   55 1
    58   25   56 1
@<TRIPOS>MOLECULE
ZINC59390991
   71    73     0     0     0
SMALL
USER_CHARGES

@<TRIPOS>ATOM
      1 C1          0.0886    1.8222   -0.3804 C.3       1 <0>        -0.1562
      2 C2          0.0352    0.2932   -0.3924 C.3       1 <0>        -0.1224
      3 C3          0.6458   -0.2487    0.9016 C.3       1 <0>        -0.1365
      4 C4          0.5925   -1.7777    0.8896 C.3       1 <0>         0.0882
      5 N1          1.1771   -2.2965    2.1286 N.am      1 <0>        -0.4986
      6 C5          0.3804   -2.4212    3.2864 C.2       1 <0>        -0.1693
      7 C6         -0.6684   -3.3171    3.3235 C.2       1 <0>         0.5066
      8 N2         -1.4272   -3.4159    4.4666 N.am      1 <0>        -0.5360
      9 C7         -1.1503   -2.6478    5.5358 C.2       1 <0>         0.7095
     10 O1         -1.8331   -2.7498    6.5369 O.2       1 <0>        -0.5157
     11 N3         -0.1320   -1.7696    5.5181 N.am      1 <0>        -0.6579
     12 H1          0.0473   -1.2274    6.3022 H         1 <0>         0.4376
     13 C8          0.6454   -1.6380    4.4255 C.2       1 <0>         0.5758
     14 O2          1.5692   -0.8420    4.4217 O.2       1 <0>        -0.5189
     15 C9         -2.5437   -4.3628    4.5198 C.3       1 <0>         0.0991
     16 C10        -2.0438   -5.7120    5.0400 C.3       1 <0>        -0.1428
     17 C11        -3.2099   -6.7010    5.0956 C.3       1 <0>        -0.1525
     18 N4         -0.9519   -4.1012    2.2309 N.pl3     1 <0>        -0.8293
     19 C12         2.4775   -2.6551    2.1626 C.2       1 <0>         0.5050
     20 O3          2.9392   -3.1689    3.1600 O.2       1 <0>        -0.5034
     21 C13         3.3563   -2.4174    0.9617 C.3       1 <0>        -0.0292
     22 N5          4.6774   -3.0157    1.1956 N.4       1 <0>        -0.3458
     23 C14         4.5495   -4.4779    1.2537 C.3       1 <0>        -0.0093
     24 C15         5.8986   -5.0934    1.6305 C.3       1 <0>        -0.1055
     25 C16         5.8023   -6.6185    1.5551 C.3       1 <0>        -0.1097
     26 C17         7.1514   -7.2339    1.9319 C.3       1 <0>        -0.1201
     27 C18         7.5227   -6.8161    3.3562 C.3       1 <0>        -0.1258
     28 C19         7.6190   -5.2910    3.4315 C.3       1 <0>        -0.1189
     29 C20         6.2698   -4.6755    3.0547 C.3       1 <0>        -0.1237
     30 C21         5.5831   -2.6466    0.0994 C.3       1 <0>        -0.0839
     31 C22         6.9838   -2.1584    0.4744 C.3       1 <0>        -0.1503
     32 C23         5.9435   -1.1673   -0.0515 C.3       1 <0>        -0.1564
     33 H2          1.1256    2.1489   -0.3033 H         1 <0>         0.0549
     34 H3         -0.3464    2.2082   -1.3023 H         1 <0>         0.0604
     35 H4         -0.4754    2.1987    0.4730 H         1 <0>         0.0572
     36 H5         -1.0018   -0.0336   -0.4695 H         1 <0>         0.0667
     37 H6          0.5993   -0.0834   -1.2458 H         1 <0>         0.0641
     38 H7          1.6828    0.0781    0.9787 H         1 <0>         0.0663
     39 H8          0.0818    0.1279    1.7550 H         1 <0>         0.0771
     40 H9         -0.4445   -2.1045    0.8124 H         1 <0>         0.0909
     41 H10         1.1565   -2.1542    0.0362 H         1 <0>         0.0880
     42 H11        -3.3144   -3.9787    5.1881 H         1 <0>         0.1185
     43 H12        -2.9599   -4.4904    3.5205 H         1 <0>         0.0952
     44 H13        -1.2731   -6.0962    4.3717 H         1 <0>         0.0655
     45 H14        -1.6276   -5.5845    6.0393 H         1 <0>         0.0788
     46 H15        -3.6261   -6.8285    4.0963 H         1 <0>         0.0594
     47 H16        -2.8537   -7.6622    5.4662 H         1 <0>         0.0677
     48 H17        -3.9806   -6.3169    5.7639 H         1 <0>         0.0655
     49 H18        -0.4604   -3.9767    1.4040 H         1 <0>         0.4214
     50 H19        -1.6435   -4.7790    2.2868 H         1 <0>         0.4148
     51 H20         2.9013   -2.8737    0.0825 H         1 <0>         0.1574
     52 H21         3.4666   -1.3453    0.7987 H         1 <0>         0.1598
     53 H22         3.8050   -4.7480    2.0027 H         1 <0>         0.1389
     54 H23         4.2378   -4.8544    0.2794 H         1 <0>         0.1268
     55 H24         6.6639   -4.7430    0.9379 H         1 <0>         0.0954
     56 H25         5.0370   -6.9689    2.2477 H         1 <0>         0.0721
     57 H26         5.5378   -6.9162    0.5405 H         1 <0>         0.0711
     58 H27         7.0828   -8.3204    1.8782 H         1 <0>         0.0725
     59 H28         7.9167   -6.8835    1.2393 H         1 <0>         0.0662
     60 H29         6.7574   -7.1665    4.0487 H         1 <0>         0.0657
     61 H30         8.4838   -7.2545    3.6246 H         1 <0>         0.0701
     62 H31         7.8834   -4.9933    4.4462 H         1 <0>         0.0715
     63 H32         8.3843   -4.9406    2.7389 H         1 <0>         0.0659
     64 H33         6.3384   -3.5890    3.1084 H         1 <0>         0.0517
     65 H34         5.5045   -5.0259    3.7473 H         1 <0>         0.0804
     66 H35         5.4823   -3.2356   -0.8122 H         1 <0>         0.1789
     67 H36         7.2333   -2.1110    1.5344 H         1 <0>         0.1202
     68 H37         7.8049   -2.4262   -0.1906 H         1 <0>         0.1365
     69 H38         6.0802   -0.7832   -1.0624 H         1 <0>         0.1369
     70 H39         5.5086   -0.4680    0.6626 H         1 <0>         0.1187
     71 H40         5.0507   -2.6757    2.0692 H         1 <0>         0.4271
@<TRIPOS>BOND
     1    1    2 1
     2    1   33 1
     3    1   34 1
     4    1   35 1
     5    2    3 1
     6    2   36 1
     7    2   37 1
     8    3    4 1
     9    3   38 1
    10    3   39 1
    11    4    5 1
    12    4   40 1
    13    4   41 1
    14    5    6 1
    15    5   19 am
    16    6   13 1
    17    6    7 2
    18    7    8 1
    19    7   18 1
    20    8    9 am
    21    8   15 1
    22    9   10 2
    23    9   11 am
    24   11   12 1
    25   11   13 am
    26   13   14 2
    27   15   16 1
    28   15   42 1
    29   15   43 1
    30   16   17 1
    31   16   44 1
    32   16   45 1
    33   17   46 1
    34   17   47 1
    35   17   48 1
    36   18   49 1
    37   18   50 1
    38   19   20 2
    39   19   21 1
    40   21   22 1
    41   21   51 1
    42   21   52 1
    43   22   23 1
    44   22   30 1
    45   22   71 1
    46   23   24 1
    47   23   53 1
    48   23   54 1
    49   24   29 1
    50   24   25 1
    51   24   55 1
    52   25   26 1
    53   25   56 1
    54   25   57 1
    55   26   27 1
    56   26   58 1
    57   26   59 1
    58   27   28 1
    59   27   60 1
    60   27   61 1
    61   28   29 1
    62   28   62 1
    63   28   63 1
    64   29   64 1
    65   29   65 1
    66   30   32 1
    67   30   31 1
    68   30   66 1
    69   31   32 1
    70   31   67 1
    71   31   68 1
    72   32   69 1
    73   32   70 1
@<TRIPOS>MOLECULE
ZINC04235553
   48    48     0     0     0
SMALL
USER_CHARGES
diethyl 2-[3-(2,4-diaminophenyl)aminoiminopropyl]propanedioate
@<TRIPOS>ATOM
      1 C1         -3.8181   13.0690   -1.6355 C.3       1 <0>        -0.1527
      2 C2         -3.8813   11.5403   -1.6296 C.3       1 <0>         0.0612
      3 O1         -5.2472   11.1133   -1.3842 O.3       1 <0>        -0.3434
      4 C3         -5.4751    9.7910   -1.3478 C.2       1 <0>         0.4681
      5 O2         -4.5634    9.0160   -1.5155 O.2       1 <0>        -0.4791
      6 C4         -6.8680    9.2730   -1.0978 C.3       1 <0>        -0.0739
      7 C5         -6.8524    7.7431   -1.1062 C.3       1 <0>        -0.0905
      8 C6         -6.0147    7.2352    0.0690 C.3       1 <0>        -0.0714
      9 C7         -5.9993    5.7283    0.0607 C.2       1 <0>         0.0363
     10 N1         -4.8841    5.0995    0.0525 N.2       1 <0>        -0.2200
     11 N2         -4.8697    3.6986    0.0448 N.pl3     1 <0>        -0.5907
     12 C8         -3.6490    3.0104    0.0357 C.ar      1 <0>         0.0855
     13 C9         -2.4546    3.7156    0.0339 C.ar      1 <0>        -0.0640
     14 C10        -1.2503    3.0376    0.0302 C.ar      1 <0>        -0.2162
     15 C11        -1.2322    1.6489    0.0169 C.ar      1 <0>         0.2239
     16 C12        -2.4246    0.9379    0.0186 C.ar      1 <0>        -0.2417
     17 C13        -3.6340    1.6154    0.0281 C.ar      1 <0>         0.2096
     18 N3         -4.8374    0.9015    0.0294 N.pl3     1 <0>        -0.8820
     19 N4         -0.0111    0.9658    0.0074 N.pl3     1 <0>        -0.8815
     20 C14        -7.7911    9.7718   -2.1795 C.2       1 <0>         0.4721
     21 O3         -8.3764    8.9845   -2.8848 O.2       1 <0>        -0.4888
     22 O4         -7.9631   11.0909   -2.3595 O.3       1 <0>        -0.3423
     23 C15        -8.8669   11.4992   -3.4200 C.3       1 <0>         0.0610
     24 C16        -8.9343   13.0268   -3.4728 C.3       1 <0>        -0.1527
     25 H1         -4.4667   13.4564   -2.4212 H         1 <0>         0.0674
     26 H2         -4.1500   13.4500   -0.6697 H         1 <0>         0.0683
     27 H3         -2.7928   13.3895   -1.8197 H         1 <0>         0.0812
     28 H4         -3.2328   11.1529   -0.8439 H         1 <0>         0.0738
     29 H5         -3.5495   11.1592   -2.5954 H         1 <0>         0.0711
     30 H6         -7.2190    9.6274   -0.1287 H         1 <0>         0.1512
     31 H7         -6.4184    7.3893   -2.0414 H         1 <0>         0.0870
     32 H8         -7.8720    7.3688   -1.0142 H         1 <0>         0.0938
     33 H9         -6.4486    7.5890    1.0042 H         1 <0>         0.0853
     34 H10        -4.9951    7.6095   -0.0230 H         1 <0>         0.0993
     35 H11        -6.9290    5.1787    0.0618 H         1 <0>         0.1030
     36 H12        -5.7048    3.2051    0.0457 H         1 <0>         0.3770
     37 H13        -2.4657    4.7955    0.0402 H         1 <0>         0.1321
     38 H14        -0.3215    3.5887    0.0333 H         1 <0>         0.1185
     39 H15        -2.4100   -0.1420    0.0131 H         1 <0>         0.1202
     40 H16        -4.8259   -0.0685    0.0238 H         1 <0>         0.3999
     41 H17        -5.6831    1.3764    0.0360 H         1 <0>         0.3897
     42 H18         0.0021   -0.0041    0.0020 H         1 <0>         0.3949
     43 H19         0.8223    1.4622    0.0021 H         1 <0>         0.3971
     44 H20        -8.5029   11.1184   -4.3743 H         1 <0>         0.0712
     45 H21        -9.8614   11.0982   -3.2243 H         1 <0>         0.0731
     46 H22        -9.6127   13.3333   -4.2689 H         1 <0>         0.0814
     47 H23        -9.2982   13.4076   -2.5185 H         1 <0>         0.0686
     48 H24        -7.9398   13.4277   -3.6685 H         1 <0>         0.0681
@<TRIPOS>BOND
     1    1    2 1
     2    1   25 1
     3    1   26 1
     4    1   27 1
     5    2    3 1
     6    2   28 1
     7    2   29 1
     8    3    4 1
     9    4    5 2
    10    4    6 1
    11    6    7 1
    12    6   20 1
    13    6   30 1
    14    7    8 1
    15    7   31 1
    16    7   32 1
    17    8    9 1
    18    8   33 1
    19    8   34 1
    20    9   10 2
    21    9   35 1
    22   10   11 1
    23   11   12 1
    24   11   36 1
    25   12   17 ar
    26   12   13 ar
    27   13   14 ar
    28   13   37 1
    29   14   15 ar
    30   14   38 1
    31   15   16 ar
    32   15   19 1
    33   16   17 ar
    34   16   39 1
    35   17   18 1
    36   18   40 1
    37   18   41 1
    38   19   42 1
    39   19   43 1
    40   20   21 2
    41   20   22 1
    42   22   23 1
    43   23   24 1
    44   23   44 1
    45   23   45 1
    46   24   46 1
    47   24   47 1
    48   24   48 1
@<TRIPOS>MOLECULE
ZINC12303069
   61    62     0     0     0
SMALL
USER_CHARGES
(2S)-1-diethylamino-3-[2-methoxy-4-[[2-(2H-triazol-4-ylsulfanyl)ethylamino]methyl]phenoxy]propan-2-ol
@<TRIPOS>ATOM
      1 C1         18.3472   -3.4669   -1.0472 C.3       1 <0>        -0.1877
      2 C2         17.0934   -4.0844   -1.6697 C.3       1 <0>        -0.0244
      3 C3         16.9750   -2.5910   -3.5719 C.3       1 <0>        -0.0134
      4 C4         16.4435   -1.2119   -3.9677 C.3       1 <0>        -0.1906
      5 C5         14.9431   -3.4935   -2.6130 C.3       1 <0>        -0.0408
      6 C6         14.1178   -3.4330   -1.3261 C.3       1 <0>         0.0885
      7 H1         14.1875   -2.4336   -0.8964 H         1 <0>         0.1346
      8 C7         12.6551   -3.7511   -1.6428 C.3       1 <0>         0.0258
      9 O1         11.8648   -3.5810   -0.4644 O.3       1 <0>        -0.2827
     10 C8         10.5316   -3.8257   -0.5746 C.ar      1 <0>         0.1300
     11 C9          9.9963   -4.2212   -1.7900 C.ar      1 <0>        -0.1740
     12 C10         8.6418   -4.4755   -1.8988 C.ar      1 <0>        -0.0845
     13 C11         7.8167   -4.3252   -0.7997 C.ar      1 <0>        -0.1571
     14 C12         8.3443   -3.9309    0.4157 C.ar      1 <0>        -0.1514
     15 C13         9.7020   -3.6800    0.5330 C.ar      1 <0>         0.1159
     16 O2         10.2225   -3.2916    1.7279 O.3       1 <0>        -0.2976
     17 C14         9.3114   -3.1623    2.8211 C.3       1 <0>         0.0206
     18 C15         6.3399   -4.5977   -0.9254 C.3       1 <0>         0.0523
     19 C16         4.1988   -3.5883   -1.4346 C.3       1 <0>         0.0126
     20 C17         3.5098   -2.2799   -1.8274 C.3       1 <0>        -0.1751
     21 S1          1.7252   -2.5615   -1.9904 S.3       1 <0>         0.0656
     22 C18         1.0840   -0.9831   -2.4400 C.2       1 <0>         0.0096
     23 C19        -0.2562   -0.6636   -2.6860 C.2       1 <0>        -0.0056
     24 N1         -0.3251    0.6074   -2.9915 N.2       1 <0>        -0.2068
     25 N2          0.8525    1.1258   -2.9618 N.pl3     1 <0>        -0.3039
     26 H2          1.0740    2.0813   -3.1564 H         1 <0>         0.4810
     27 N3          1.7730    0.1284   -2.6113 N.2       1 <0>        -0.2861
     28 O3         14.6217   -4.3894   -0.3915 O.3       1 <0>        -0.5361
     29 H3         18.0562   -2.7099   -0.3189 H         1 <0>         0.0806
     30 H4         18.9272   -4.2449   -0.5506 H         1 <0>         0.1079
     31 H5         18.9516   -3.0061   -1.8285 H         1 <0>         0.0778
     32 H6         16.4891   -4.5452   -0.8884 H         1 <0>         0.1485
     33 H7         17.3844   -4.8414   -2.3980 H         1 <0>         0.1281
     34 H8         18.0505   -2.5317   -3.4049 H         1 <0>         0.1347
     35 H9         16.7701   -3.3026   -4.3717 H         1 <0>         0.1317
     36 H10        16.6872   -0.4909   -3.1874 H         1 <0>         0.0825
     37 H11        16.9030   -0.9010   -4.9059 H         1 <0>         0.1093
     38 H12        15.3617   -1.2613   -4.0917 H         1 <0>         0.0757
     39 H13        14.9697   -4.5197   -2.9796 H         1 <0>         0.1405
     40 H14        14.4889   -2.8501   -3.3665 H         1 <0>         0.1424
     41 H15        12.5741   -4.7814   -1.9890 H         1 <0>         0.0820
     42 H16        12.2970   -3.0770   -2.4209 H         1 <0>         0.0852
     43 H17        10.6381   -4.3355   -2.6511 H         1 <0>         0.1440
     44 H18         8.2267   -4.7883   -2.8455 H         1 <0>         0.1404
     45 H19         7.6983   -3.8189    1.2740 H         1 <0>         0.1479
     46 H20         9.8550   -2.8474    3.7119 H         1 <0>         0.1136
     47 H21         8.5533   -2.4184    2.5763 H         1 <0>         0.0589
     48 H22         8.8309   -4.1224    3.0092 H         1 <0>         0.0625
     49 H23         5.9539   -4.9552    0.0292 H         1 <0>         0.1413
     50 H24         6.1742   -5.3556   -1.6911 H         1 <0>         0.1433
     51 H25         3.7979   -3.9387   -0.4835 H         1 <0>         0.1453
     52 H26         4.0182   -4.3392   -2.2038 H         1 <0>         0.1456
     53 H27         3.9107   -1.9295   -2.7785 H         1 <0>         0.1144
     54 H28         3.6904   -1.5290   -1.0582 H         1 <0>         0.1144
     55 H29        -1.0900   -1.3480   -2.6333 H         1 <0>         0.2047
     56 H30        14.5904   -5.3026   -0.7079 H         1 <0>         0.3908
     57 N4         16.3102   -3.0134   -2.3212 N.4       1 <0>        -0.3904
     58 H31        16.2526   -2.2088   -1.6859 H         1 <0>         0.4276
     59 N5          5.6488   -3.3508   -1.3042 N.4       1 <0>        -0.5158
     60 H32         6.0195   -3.0174   -2.2018 H         1 <0>         0.4331
     61 H33         5.8120   -2.6402   -0.5813 H         1 <0>         0.4330
@<TRIPOS>BOND
     1    1    2 1
     2    1   29 1
     3    1   30 1
     4    1   31 1
     5    2   32 1
     6    2   33 1
     7    2   57 1
     8    3    4 1
     9    3   34 1
    10    3   35 1
    11    3   57 1
    12    4   36 1
    13    4   37 1
    14    4   38 1
    15    5    6 1
    16    5   39 1
    17    5   40 1
    18    5   57 1
    19    6    7 1
    20    6    8 1
    21    6   28 1
    22    8    9 1
    23    8   41 1
    24    8   42 1
    25    9   10 1
    26   10   15 ar
    27   10   11 ar
    28   11   12 ar
    29   11   43 1
    30   12   13 ar
    31   12   44 1
    32   13   14 ar
    33   13   18 1
    34   14   15 ar
    35   14   45 1
    36   15   16 1
    37   16   17 1
    38   17   46 1
    39   17   47 1
    40   17   48 1
    41   18   49 1
    42   18   50 1
    43   18   59 1
    44   19   20 1
    45   19   51 1
    46   19   52 1
    47   19   59 1
    48   20   21 1
    49   20   53 1
    50   20   54 1
    51   21   22 1
    52   22   27 2
    53   22   23 1
    54   23   24 2
    55   23   55 1
    56   24   25 1
    57   25   26 1
    58   25   27 1
    59   28   56 1
    60   57   58 1
    61   59   60 1
    62   59   61 1
@<TRIPOS>MOLECULE
ZINC26896592
   53    54     0     0     0
SMALL
USER_CHARGES
(2S)-1-amino-3-[4-[[4-[(2R)-3-amino-2-hydroxy-propoxy]phenyl]methyl]phenoxy]propan-2-ol
@<TRIPOS>ATOM
      1 C1         -0.2945    1.2737   -4.7535 C.ar      1 <0>        -0.0723
      2 C2         -0.8147    1.6325   -3.5251 C.ar      1 <0>        -0.1419
      3 C3         -0.1940    1.2076   -2.3594 C.ar      1 <0>         0.1186
      4 C4          0.9512    0.4278   -2.4307 C.ar      1 <0>        -0.2044
      5 C5          1.4639    0.0665   -3.6615 C.ar      1 <0>        -0.0730
      6 C6          0.8437    0.4917   -4.8219 C.ar      1 <0>        -0.1041
      7 C7          1.4090    0.1017   -6.1633 C.3       1 <0>        -0.0419
      8 C8          2.4019    1.1429   -6.6118 C.ar      1 <0>        -0.1046
      9 C9          1.9782    2.2201   -7.3680 C.ar      1 <0>        -0.0730
     10 C10         2.8855    3.1788   -7.7757 C.ar      1 <0>        -0.2044
     11 C11         4.2246    3.0541   -7.4353 C.ar      1 <0>         0.1190
     12 C12         4.6481    1.9693   -6.6813 C.ar      1 <0>        -0.1418
     13 C13         3.7360    1.0163   -6.2713 C.ar      1 <0>        -0.0722
     14 O1          5.1200    3.9932   -7.8394 O.3       1 <0>        -0.3048
     15 C14         4.6129    5.0826   -8.6128 C.3       1 <0>         0.0633
     16 C15         5.7594    6.0298   -8.9724 C.3       1 <0>         0.0931
     17 H1          6.3337    6.3180   -8.0796 H         1 <0>         0.0911
     18 C16         5.1992    7.2582   -9.6923 C.3       1 <0>        -0.0346
     19 N1          6.3000    8.1677  -10.0376 N.4       1 <0>        -0.6847
     20 O2          6.6832    5.3557   -9.8292 O.3       1 <0>        -0.5697
     21 O3         -0.7038    1.5592   -1.1497 O.3       1 <0>        -0.3050
     22 C17        -0.0127    1.0858    0.0080 C.3       1 <0>         0.0636
     23 C18        -0.7288    1.5792    1.2668 C.3       1 <0>         0.0932
     24 H2         -1.8023    1.3416    1.2339 H         1 <0>         0.0914
     25 C19        -0.0638    0.9713    2.5033 C.3       1 <0>        -0.0351
     26 N2         -0.8231    1.3483    3.7030 N.4       1 <0>        -0.6848
     27 O4         -0.6468    3.0043    1.3339 O.3       1 <0>        -0.5714
     28 H3         -0.7776    1.6040   -5.6613 H         1 <0>         0.1318
     29 H4         -1.7040    2.2431   -3.4722 H         1 <0>         0.1325
     30 H5          1.4387    0.0995   -1.5246 H         1 <0>         0.1248
     31 H6          2.3524   -0.5448   -3.7176 H         1 <0>         0.1276
     32 H7          1.9121   -0.8729   -6.0798 H         1 <0>         0.0871
     33 H8          0.5938    0.0317   -6.8985 H         1 <0>         0.0871
     34 H9          0.9364    2.3144   -7.6365 H         1 <0>         0.1275
     35 H10         2.5534    4.0224   -8.3626 H         1 <0>         0.1249
     36 H11         5.6900    1.8701   -6.4147 H         1 <0>         0.1326
     37 H12         4.0651    0.1718   -5.6840 H         1 <0>         0.1318
     38 H13         4.1541    4.6956   -9.5346 H         1 <0>         0.0819
     39 H14         3.8571    5.6271   -8.0278 H         1 <0>         0.0874
     40 H15         4.6834    6.9414  -10.6108 H         1 <0>         0.1424
     41 H16         4.4880    7.7771   -9.0328 H         1 <0>         0.1428
     42 H17         5.8973    9.0508  -10.5552 H         1 <0>         0.4690
     43 H18         7.0112    7.6488  -10.6971 H         1 <0>         0.4531
     44 H19         7.5782    5.8806  -10.1945 H         1 <0>         0.4053
     45 H20         0.0022   -0.0141    0.0019 H         1 <0>         0.0886
     46 H21         1.0193    1.4665    0.0002 H         1 <0>         0.0805
     47 H22        -0.0472   -0.1245    2.4093 H         1 <0>         0.1434
     48 H23         0.9663    1.3477    2.5881 H         1 <0>         0.1423
     49 H24        -0.3449    0.9112    4.5920 H         1 <0>         0.4688
     50 H25        -1.8532    0.9719    3.6183 H         1 <0>         0.4599
     51 H26        -1.1075    3.5427    2.1753 H         1 <0>         0.4063
     52 H27         6.8157    8.4844   -9.1191 H         1 <0>         0.4588
     53 H28        -0.8397    2.4441    3.7971 H         1 <0>         0.4522
@<TRIPOS>BOND
     1    1    6 ar
     2    1    2 ar
     3    1   28 1
     4    2    3 ar
     5    2   29 1
     6    3    4 ar
     7    3   21 1
     8    4    5 ar
     9    4   30 1
    10    5    6 ar
    11    5   31 1
    12    6    7 1
    13    7    8 1
    14    7   32 1
    15    7   33 1
    16    8   13 ar
    17    8    9 ar
    18    9   10 ar
    19    9   34 1
    20   10   11 ar
    21   10   35 1
    22   11   12 ar
    23   11   14 1
    24   12   13 ar
    25   12   36 1
    26   13   37 1
    27   14   15 1
    28   15   16 1
    29   15   38 1
    30   15   39 1
    31   16   17 1
    32   16   18 1
    33   16   20 1
    34   18   19 1
    35   18   40 1
    36   18   41 1
    37   19   42 1
    38   19   43 1
    39   19   52 1
    40   20   44 1
    41   21   22 1
    42   22   23 1
    43   22   45 1
    44   22   46 1
    45   23   24 1
    46   23   25 1
    47   23   27 1
    48   25   26 1
    49   25   47 1
    50   25   48 1
    51   26   49 1
    52   26   50 1
    53   26   53 1
    54   27   51 1
@<TRIPOS>MOLECULE
ZINC43209406
   67    69     0     0     0
SMALL
USER_CHARGES

@<TRIPOS>ATOM
      1 C1         -0.0167    1.3781    0.0096 C.ar      1 <0>        -0.1003
      2 C2          1.1709    2.0855    0.0021 C.ar      1 <0>        -0.1210
      3 C3          2.3773    1.4107   -0.0130 C.ar      1 <0>        -0.0947
      4 C4          2.3960    0.0285   -0.0201 C.ar      1 <0>        -0.1118
      5 C5          1.2084   -0.6789   -0.0117 C.ar      1 <0>        -0.0940
      6 C6          0.0021   -0.0041    0.0020 C.ar      1 <0>        -0.1202
      7 C7          3.7112   -0.7071   -0.0376 C.3       1 <0>         0.1039
      8 O1          4.1410   -0.9464    1.3041 O.3       1 <0>        -0.3008
      9 C8          5.3186   -1.6049    1.4665 C.ar      1 <0>         0.1590
     10 C9          6.0483   -2.0075    0.3574 C.ar      1 <0>        -0.2020
     11 C10         7.2453   -2.6763    0.5252 C.ar      1 <0>        -0.0923
     12 C11         7.7160   -2.9451    1.7972 C.ar      1 <0>        -0.1791
     13 C12         6.9904   -2.5454    2.9042 C.ar      1 <0>        -0.0584
     14 C13         5.7959   -1.8708    2.7418 C.ar      1 <0>        -0.1440
     15 C14         9.0219   -3.6754    1.9773 C.3       1 <0>        -0.0855
     16 C15        10.1673   -2.6632    2.0441 C.3       1 <0>         0.1470
     17 H1          9.9641   -1.9359    2.8301 H         1 <0>         0.1711
     18 C16        11.4565   -3.3826    2.3466 C.2       1 <0>        -0.1030
     19 N1         12.1115   -3.4210    3.4748 N.2       1 <0>        -0.4228
     20 C17        13.2457   -4.1264    3.5268 C.2       1 <0>        -0.0044
     21 C18        13.6183   -4.7532    2.3679 C.2       1 <0>        -0.1805
     22 S1         12.3818   -4.3280    1.3131 S.3       1 <0>         0.3180
     23 C19        14.0478   -4.2233    4.7581 C.2       1 <0>         0.5999
     24 O2         15.0746   -4.8753    4.7654 O.2       1 <0>        -0.5110
     25 N2         13.6440   -3.5896    5.8770 N.am      1 <0>        -0.6923
     26 C20        14.4419   -3.6860    7.1018 C.3       1 <0>         0.1269
     27 H2         14.8909   -4.6771    7.1659 H         1 <0>         0.1233
     28 C21        13.5411   -3.4546    8.3168 C.3       1 <0>        -0.1253
     29 C22        12.5140   -4.5845    8.4127 C.3       1 <0>        -0.1184
     30 C23        11.6133   -4.3531    9.6276 C.3       1 <0>        -0.1540
     31 C24        10.5862   -5.4831    9.7236 C.3       1 <0>        -0.0094
     32 N3          9.7214   -5.2609   10.8901 N.4       1 <0>        -0.6392
     33 C25        15.5291   -2.6427    7.0766 C.2       1 <0>         0.5031
     34 O3         15.6277   -1.8925    6.1287 O.2       1 <0>        -0.5275
     35 N4         16.3918   -2.5433    8.1073 N.am      1 <0>        -0.8490
     36 N5         10.2843   -1.9703    0.7541 N.4       1 <0>        -0.6382
     37 H3         -0.9591    1.9053    0.0259 H         1 <0>         0.1297
     38 H4          1.1563    3.1654    0.0076 H         1 <0>         0.1293
     39 H5          3.3051    1.9634   -0.0196 H         1 <0>         0.1229
     40 H6          1.2231   -1.7588   -0.0176 H         1 <0>         0.1240
     41 H7         -0.9258   -0.5567    0.0082 H         1 <0>         0.1297
     42 H8          3.5884   -1.6586   -0.5549 H         1 <0>         0.0766
     43 H9          4.4573   -0.1052   -0.5563 H         1 <0>         0.0755
     44 H10         5.6808   -1.7984   -0.6363 H         1 <0>         0.1396
     45 H11         7.8138   -2.9899   -0.3379 H         1 <0>         0.1276
     46 H12         7.3600   -2.7569    3.8967 H         1 <0>         0.1336
     47 H13         5.2316   -1.5549    3.6068 H         1 <0>         0.1399
     48 H14         8.9916   -4.2513    2.9023 H         1 <0>         0.1231
     49 H15         9.1808   -4.3488    1.1351 H         1 <0>         0.1026
     50 H16        14.4859   -5.3685    2.1804 H         1 <0>         0.2242
     51 H17        12.8252   -3.0696    5.8712 H         1 <0>         0.4115
     52 H18        14.1487   -3.4380    9.2216 H         1 <0>         0.0947
     53 H19        13.0236   -2.5013    8.2091 H         1 <0>         0.0834
     54 H20        11.9065   -4.6011    7.5079 H         1 <0>         0.0775
     55 H21        13.0316   -5.5378    8.5204 H         1 <0>         0.0828
     56 H22        12.2208   -4.3365   10.5325 H         1 <0>         0.0930
     57 H23        11.0958   -3.3999    9.5199 H         1 <0>         0.0899
     58 H24         9.9787   -5.4997    8.8188 H         1 <0>         0.1319
     59 H25        11.1037   -6.4363    9.8313 H         1 <0>         0.1354
     60 H26         9.2423   -4.3785   10.7904 H         1 <0>         0.4355
     61 H27         9.0440   -6.0061   10.9534 H         1 <0>         0.4406
     62 H28        16.3129   -3.1433    8.8654 H         1 <0>         0.4020
     63 H29        17.0915   -1.8718    8.0910 H         1 <0>         0.4104
     64 H30        11.0396   -1.3028    0.7981 H         1 <0>         0.4433
     65 H31        10.4724   -2.6436    0.0265 H         1 <0>         0.4325
     66 H32        10.2838   -5.2456   11.7277 H         1 <0>         0.4376
     67 H33         9.4211   -1.4886    0.5516 H         1 <0>         0.4467
@<TRIPOS>BOND
     1    1    6 ar
     2    1    2 ar
     3    1   37 1
     4    2    3 ar
     5    2   38 1
     6    3    4 ar
     7    3   39 1
     8    4    5 ar
     9    4    7 1
    10    5    6 ar
    11    5   40 1
    12    6   41 1
    13    7    8 1
    14    7   42 1
    15    7   43 1
    16    8    9 1
    17    9   14 ar
    18    9   10 ar
    19   10   11 ar
    20   10   44 1
    21   11   12 ar
    22   11   45 1
    23   12   13 ar
    24   12   15 1
    25   13   14 ar
    26   13   46 1
    27   14   47 1
    28   15   16 1
    29   15   48 1
    30   15   49 1
    31   16   17 1
    32   16   18 1
    33   16   36 1
    34   18   22 1
    35   18   19 2
    36   19   20 1
    37   20   21 2
    38   20   23 1
    39   21   22 1
    40   21   50 1
    41   23   24 2
    42   23   25 am
    43   25   26 1
    44   25   51 1
    45   26   27 1
    46   26   28 1
    47   26   33 1
    48   28   29 1
    49   28   52 1
    50   28   53 1
    51   29   30 1
    52   29   54 1
    53   29   55 1
    54   30   31 1
    55   30   56 1
    56   30   57 1
    57   31   32 1
    58   31   58 1
    59   31   59 1
    60   32   60 1
    61   32   61 1
    62   32   66 1
    63   33   34 2
    64   33   35 am
    65   35   62 1
    66   35   63 1
    67   36   64 1
    68   36   65 1
    69   36   67 1
@<TRIPOS>MOLECULE
ZINC59386732
   50    51     0     0     0
SMALL
USER_CHARGES

@<TRIPOS>ATOM
      1 C1          1.6003    2.3651    0.4194 C.3       1 <0>        -0.1486
      2 C2          1.6824    0.8435    0.5562 C.3       1 <0>        -0.0837
      3 C3          2.1784    0.2489   -0.7367 C.ar      1 <0>        -0.1130
      4 C4          1.2767   -0.1140   -1.7201 C.ar      1 <0>        -0.0771
      5 C5          1.7288   -0.6597   -2.9060 C.ar      1 <0>        -0.1423
      6 C6          3.0888   -0.8429   -3.1099 C.ar      1 <0>         0.1194
      7 C7          3.9914   -0.4775   -2.1218 C.ar      1 <0>        -0.2054
      8 C8          3.5346    0.0725   -0.9398 C.ar      1 <0>        -0.0785
      9 O1          3.5359   -1.3799   -4.2755 O.3       1 <0>        -0.3108
     10 C9          4.9490   -1.5395   -4.4163 C.3       1 <0>         0.0445
     11 C10         5.2592   -2.1541   -5.7826 C.3       1 <0>         0.1216
     12 N1          4.8677   -1.2180   -6.8394 N.pl3     1 <0>        -0.7180
     13 C11         5.0555   -1.5604   -8.1804 C.ar      1 <0>         0.3224
     14 C12         5.7227   -2.7315   -8.5115 C.ar      1 <0>        -0.2673
     15 C13         5.9071   -3.0679   -9.8449 C.ar      1 <0>         0.2900
     16 C14         5.4236   -2.2317  -10.8443 C.ar      1 <0>        -0.2445
     17 C15         4.7605   -1.0666  -10.5113 C.ar      1 <0>         0.0333
     18 C16         4.5696   -0.7318   -9.1844 C.ar      1 <0>        -0.1606
     19 N2          3.8523    0.5140   -8.8322 N.pl3     1 <0>         0.0425
     20 O2          3.1077    0.5342   -7.8799 O.2       1 <0>        -0.1740
     21 O3          4.0109    1.5114   -9.4967 O.3       1 <0>        -0.1526
     22 N3          6.5784   -4.2453  -10.1825 N.pl3     1 <0>        -0.7385
     23 C17         6.7727   -4.5997  -11.5906 C.3       1 <0>         0.0951
     24 C18         7.5304   -5.9258  -11.6829 C.3       1 <0>        -0.0197
     25 N4          7.7252   -6.2811  -13.0949 N.4       1 <0>        -0.6321
     26 H1          2.5892    2.7634    0.1921 H         1 <0>         0.0547
     27 H2          0.9117    2.6209   -0.3859 H         1 <0>         0.0564
     28 H3          1.2416    2.7952    1.3546 H         1 <0>         0.0595
     29 H4          2.3711    0.5877    1.3615 H         1 <0>         0.0712
     30 H5          0.6936    0.4452    0.7835 H         1 <0>         0.0726
     31 H6          0.2181    0.0288   -1.5608 H         1 <0>         0.1308
     32 H7          1.0241   -0.9437   -3.6735 H         1 <0>         0.1316
     33 H8          5.0506   -0.6192   -2.2782 H         1 <0>         0.1248
     34 H9          4.2372    0.3612   -0.1720 H         1 <0>         0.1250
     35 H10         5.4342   -0.5667   -4.3368 H         1 <0>         0.0718
     36 H11         5.3206   -2.1962   -3.6296 H         1 <0>         0.0854
     37 H12         6.3275   -2.3579   -5.8552 H         1 <0>         0.0897
     38 H13         4.7032   -3.0846   -5.8972 H         1 <0>         0.0838
     39 H14         4.4781   -0.3604   -6.6077 H         1 <0>         0.4186
     40 H15         6.0977   -3.3794   -7.7330 H         1 <0>         0.1428
     41 H16         5.5669   -2.4930  -11.8824 H         1 <0>         0.1355
     42 H17         4.3864   -0.4183  -11.2898 H         1 <0>         0.1495
     43 H18         6.9159   -4.8284   -9.4846 H         1 <0>         0.4113
     44 H19         5.8025   -4.7010  -12.0770 H         1 <0>         0.0873
     45 H20         7.3477   -3.8175  -12.0862 H         1 <0>         0.0875
     46 H21         8.5005   -5.8245  -11.1965 H         1 <0>         0.1419
     47 H22         6.9554   -6.7080  -11.1874 H         1 <0>         0.1419
     48 H23         6.8271   -6.3749  -13.5452 H         1 <0>         0.4394
     49 H24         8.2575   -5.5570  -13.5536 H         1 <0>         0.4393
     50 H25         8.2249   -7.1556  -13.1558 H         1 <0>         0.4455
@<TRIPOS>BOND
     1    1    2 1
     2    1   26 1
     3    1   27 1
     4    1   28 1
     5    2    3 1
     6    2   29 1
     7    2   30 1
     8    3    8 ar
     9    3    4 ar
    10    4    5 ar
    11    4   31 1
    12    5    6 ar
    13    5   32 1
    14    6    7 ar
    15    6    9 1
    16    7    8 ar
    17    7   33 1
    18    8   34 1
    19    9   10 1
    20   10   11 1
    21   10   35 1
    22   10   36 1
    23   11   12 1
    24   11   37 1
    25   11   38 1
    26   12   13 1
    27   12   39 1
    28   13   18 ar
    29   13   14 ar
    30   14   15 ar
    31   14   40 1
    32   15   16 ar
    33   15   22 1
    34   16   17 ar
    35   16   41 1
    36   17   18 ar
    37   17   42 1
    38   18   19 1
    39   19   20 2
    40   19   21 1
    41   22   23 1
    42   22   43 1
    43   23   24 1
    44   23   44 1
    45   23   45 1
    46   24   25 1
    47   24   46 1
    48   24   47 1
    49   25   48 1
    50   25   49 1
    51   25   50 1
@<TRIPOS>MOLECULE
ZINC04937080
   47    48     0     0     0
SMALL
USER_CHARGES
3-[2-[(3-cyano-6-methoxy-2-quinolyl)amino]ethyl]-1-(2-methoxyethyl)thiourea
@<TRIPOS>ATOM
      1 C1         10.1669   -4.2793   10.7346 C.3       1 <0>         0.0293
      2 O1          8.9674   -3.5803   11.0732 O.3       1 <0>        -0.3944
      3 C2          7.9889   -4.3890   11.7294 C.3       1 <0>         0.0419
      4 C3          6.7541   -3.5417   12.0429 C.3       1 <0>         0.1244
      5 N1          6.1258   -3.1123   10.7910 N.pl3     1 <0>        -0.6683
      6 C4          5.0146   -2.3502   10.8215 C.2       1 <0>         0.5568
      7 S1          4.3374   -1.8839   12.3231 S.2       1 <0>        -0.6134
      8 N2          4.4366   -1.9552    9.6698 N.pl3     1 <0>        -0.6957
      9 C5          3.2288   -1.1268    9.7029 C.3       1 <0>         0.1181
     10 C6          2.7806   -0.8211    8.2723 C.3       1 <0>         0.0664
     11 N3          1.5728    0.0073    8.3055 N.pl3     1 <0>        -0.6750
     12 C7          0.9794    0.4129    7.1231 C.ar      1 <0>         0.5317
     13 C8         -0.1868    1.2133    7.1712 C.ar      1 <0>        -0.0940
     14 C9         -0.7825    1.6210    5.9853 C.ar      1 <0>         0.1283
     15 C10        -0.1932    1.2155    4.7742 C.ar      1 <0>        -0.0769
     16 C11        -0.7414    1.5973    3.5384 C.ar      1 <0>        -0.0861
     17 C12        -0.1487    1.1820    2.3799 C.ar      1 <0>         0.1385
     18 C13         1.0031    0.3909    2.4113 C.ar      1 <0>        -0.1060
     19 C14         1.5602    0.0102    3.5930 C.ar      1 <0>        -0.1092
     20 C15         0.9751    0.4136    4.8057 C.ar      1 <0>         0.1393
     21 O2         -0.6816    1.5467    1.1837 O.3       1 <0>        -0.2998
     22 C16        -0.0127    1.0858    0.0080 C.3       1 <0>         0.0164
     23 C17        -0.7468    1.5995    8.4314 C.1       1 <0>         0.2201
     24 N4         -1.1911    1.9058    9.4310 N.1       1 <0>        -0.3278
     25 H1         10.8581   -3.5966   10.2404 H         1 <0>         0.0904
     26 H2         10.6282   -4.6700   11.6416 H         1 <0>         0.0486
     27 H3          9.9292   -5.1046   10.0634 H         1 <0>         0.0435
     28 H4          8.4050   -4.7819   12.6570 H         1 <0>         0.0810
     29 H5          7.7060   -5.2166   11.0788 H         1 <0>         0.0585
     30 H6          7.0513   -2.6657   12.6194 H         1 <0>         0.1019
     31 H7          6.0446   -4.1336   12.6211 H         1 <0>         0.1080
     32 H8          6.5095   -3.3766    9.9402 H         1 <0>         0.4015
     33 H9          4.8204   -2.2194    8.8190 H         1 <0>         0.3985
     34 H10         3.4425   -0.1935   10.2240 H         1 <0>         0.1053
     35 H11         2.4357   -1.6614   10.2257 H         1 <0>         0.1053
     36 H12         2.5669   -1.7544    7.7513 H         1 <0>         0.1004
     37 H13         3.5737   -0.2865    7.7495 H         1 <0>         0.1007
     38 H14         1.1891    0.2715    9.1562 H         1 <0>         0.4411
     39 H15        -1.6727    2.2325    5.9925 H         1 <0>         0.1914
     40 H16        -1.6286    2.2121    3.5045 H         1 <0>         0.1704
     41 H17         1.4582    0.0772    1.4834 H         1 <0>         0.1596
     42 H18         2.4508   -0.6007    3.5991 H         1 <0>         0.1572
     43 H19         0.0021   -0.0041    0.0020 H         1 <0>         0.0656
     44 H20         1.0099    1.4631    0.0003 H         1 <0>         0.0656
     45 H21        -0.5399    1.4469   -0.8751 H         1 <0>         0.1166
     46 N5          1.5760    0.0023    5.9776 N.ar      1 <0>        -0.5421
     47 H22         2.4225   -0.5788    5.9816 H         1 <0>         0.4663
@<TRIPOS>BOND
     1    1    2 1
     2    1   25 1
     3    1   26 1
     4    1   27 1
     5    2    3 1
     6    3    4 1
     7    3   28 1
     8    3   29 1
     9    4    5 1
    10    4   30 1
    11    4   31 1
    12    5    6 1
    13    5   32 1
    14    6    7 2
    15    6    8 1
    16    8    9 1
    17    8   33 1
    18    9   10 1
    19    9   34 1
    20    9   35 1
    21   10   11 1
    22   10   36 1
    23   10   37 1
    24   11   12 1
    25   11   38 1
    26   12   13 ar
    27   12   46 ar
    28   13   14 ar
    29   13   23 1
    30   14   15 ar
    31   14   39 1
    32   15   20 ar
    33   15   16 ar
    34   16   17 ar
    35   16   40 1
    36   17   18 ar
    37   17   21 1
    38   18   19 ar
    39   18   41 1
    40   19   20 ar
    41   19   42 1
    42   20   46 ar
    43   21   22 1
    44   22   43 1
    45   22   44 1
    46   22   45 1
    47   23   24 3
    48   46   47 1
@<TRIPOS>MOLECULE
ZINC36228712
   43    43     0     0     0
SMALL
USER_CHARGES

@<TRIPOS>ATOM
      1 C1         -0.0187    1.5258    0.0104 C.3       1 <0>        -0.1574
      2 C2          0.0021   -0.0041    0.0020 C.3       1 <0>         0.0606
      3 O1          0.6709   -0.4649   -1.1737 O.3       1 <0>        -0.4035
      4 C3          0.7457   -1.8880   -1.2798 C.3       1 <0>         0.0271
      5 C4          1.4779   -2.2655   -2.5691 C.3       1 <0>        -0.0014
      6 N1          2.8716   -1.8077   -2.4927 N.4       1 <0>        -0.5088
      7 C5          3.5746   -2.1702   -3.7306 C.3       1 <0>         0.0476
      8 C6          5.0044   -1.7006   -3.6523 C.ar      1 <0>        -0.1171
      9 C7          5.3404   -0.4356   -4.0984 C.ar      1 <0>        -0.1746
     10 C8          6.6544   -0.0019   -4.0278 C.ar      1 <0>         0.1366
     11 C9          7.6341   -0.8415   -3.5069 C.ar      1 <0>         0.1049
     12 C10         7.2911   -2.1085   -3.0608 C.ar      1 <0>        -0.0209
     13 C11         5.9759   -2.5331   -3.1296 C.ar      1 <0>        -0.1115
     14 Cl1         8.5102   -3.1597   -2.4107 Cl        1 <0>        -0.0153
     15 O2          8.9255   -0.4203   -3.4360 O.3       1 <0>        -0.2858
     16 C12         9.3246    0.2495   -2.2384 C.3       1 <0>         0.0469
     17 C13        10.7766    0.6394   -2.3410 C.2       1 <0>         0.5192
     18 O3         11.4076    0.3703   -3.3411 O.2       1 <0>        -0.5102
     19 N2         11.3741    1.2873   -1.3212 N.am      1 <0>        -0.8494
     20 O4          6.9860    1.2417   -4.4671 O.3       1 <0>        -0.2910
     21 C14         5.9286    2.0484   -4.9897 C.3       1 <0>         0.0190
     22 H1          1.0039    1.9031    0.0027 H         1 <0>         0.0641
     23 H2         -0.5459    1.8868   -0.8726 H         1 <0>         0.0676
     24 H3         -0.5289    1.8773    0.9072 H         1 <0>         0.0822
     25 H4          0.5293   -0.3651    0.8851 H         1 <0>         0.0586
     26 H5         -1.0205   -0.3814    0.0098 H         1 <0>         0.0619
     27 H6          1.2883   -2.2882   -0.4233 H         1 <0>         0.0755
     28 H7         -0.2614   -2.3044   -1.2986 H         1 <0>         0.0997
     29 H8          1.4574   -3.3481   -2.6949 H         1 <0>         0.1479
     30 H9          0.9858   -1.7917   -3.4184 H         1 <0>         0.1416
     31 H10         2.8906   -0.8057   -2.3763 H         1 <0>         0.4344
     32 H11         3.5541   -3.2527   -3.8565 H         1 <0>         0.1456
     33 H12         3.0825   -1.6963   -4.5800 H         1 <0>         0.1438
     34 H13         4.5783    0.2144   -4.5024 H         1 <0>         0.1498
     35 H14         5.7088   -3.5188   -2.7781 H         1 <0>         0.1508
     36 H15         8.7168    1.1441   -2.1027 H         1 <0>         0.0910
     37 H16         9.1865   -0.4162   -1.3865 H         1 <0>         0.0884
     38 H17        10.8694    1.5026   -0.5213 H         1 <0>         0.4029
     39 H18        12.3087    1.5383   -1.3873 H         1 <0>         0.4131
     40 H19         6.3285    3.0126   -5.3037 H         1 <0>         0.1147
     41 H20         5.4774    1.5462   -5.8454 H         1 <0>         0.0639
     42 H21         5.1735    2.2018   -4.2188 H         1 <0>         0.0601
     43 H22         3.3272   -2.2464   -1.7065 H         1 <0>         0.4275
@<TRIPOS>BOND
     1    1    2 1
     2    1   22 1
     3    1   23 1
     4    1   24 1
     5    2    3 1
     6    2   25 1
     7    2   26 1
     8    3    4 1
     9    4    5 1
    10    4   27 1
    11    4   28 1
    12    5    6 1
    13    5   29 1
    14    5   30 1
    15    6    7 1
    16    6   31 1
    17    6   43 1
    18    7    8 1
    19    7   32 1
    20    7   33 1
    21    8   13 ar
    22    8    9 ar
    23    9   10 ar
    24    9   34 1
    25   10   11 ar
    26   10   20 1
    27   11   12 ar
    28   11   15 1
    29   12   13 ar
    30   12   14 1
    31   13   35 1
    32   15   16 1
    33   16   17 1
    34   16   36 1
    35   16   37 1
    36   17   18 2
    37   17   19 am
    38   19   38 1
    39   19   39 1
    40   20   21 1
    41   21   40 1
    42   21   41 1
    43   21   42 1
@<TRIPOS>MOLECULE
ZINC45419718
   47    46     0     0     0
SMALL
USER_CHARGES

@<TRIPOS>ATOM
      1 C1         -0.3453    0.1815   -1.8495 C.3       1 <0>        -0.1810
      2 C2         -0.3416   -0.4852   -0.4724 C.3       1 <0>         0.0095
      3 C3          0.9431   -0.1135    0.2708 C.3       1 <0>        -0.1978
      4 N1         -1.5040   -0.0236    0.2982 N.4       1 <0>        -0.5007
      5 C4         -1.6310   -0.8272    1.5214 C.3       1 <0>         0.0385
      6 C5         -1.6379   -2.3131    1.1570 C.3       1 <0>        -0.1713
      7 C6         -2.9379   -0.4704    2.2325 C.3       1 <0>        -0.1343
      8 C7         -3.0702   -1.3074    3.5065 C.3       1 <0>        -0.1218
      9 C8         -4.3771   -0.9506    4.2176 C.3       1 <0>        -0.1103
     10 C9         -4.5094   -1.7876    5.4915 C.3       1 <0>         0.0311
     11 N2         -5.7642   -1.4450    6.1743 N.3       1 <0>        -0.5371
     12 C10        -5.6385   -0.1743    6.9005 C.3       1 <0>         0.0239
     13 C11        -6.1858   -2.5265    7.0747 C.3       1 <0>         0.0056
     14 C12        -6.8280   -3.6493    6.2575 C.3       1 <0>         0.4581
     15 F1         -5.8502   -4.2766    5.4780 F         1 <0>        -0.1860
     16 F2         -7.4052   -4.5846    7.1231 F         1 <0>        -0.1797
     17 F3         -7.8157   -3.1134    5.4242 F         1 <0>        -0.1712
     18 C13        -0.4674   -0.5393    2.4347 C.2       1 <0>         0.5218
     19 O1          0.0884   -1.4485    3.0138 O.2       1 <0>        -0.4790
     20 N3         -0.0443    0.7285    2.6079 N.am      1 <0>        -0.8528
     21 H1          0.5172   -0.1610   -2.4212 H         1 <0>         0.1096
     22 H2         -1.2606   -0.0833   -2.3789 H         1 <0>         0.0842
     23 H3         -0.2951    1.2637   -1.7294 H         1 <0>         0.0821
     24 H4         -0.3918   -1.5674   -0.5924 H         1 <0>         0.1500
     25 H5          1.0859   -0.7923    1.1116 H         1 <0>         0.0884
     26 H6          1.7918   -0.1931   -0.4086 H         1 <0>         0.1089
     27 H7          0.8670    0.9097    0.6387 H         1 <0>         0.0846
     28 H8         -1.3802    0.9469    0.5448 H         1 <0>         0.4194
     29 H9         -0.7068   -2.5673    0.6503 H         1 <0>         0.0897
     30 H10        -1.7322   -2.9094    2.0645 H         1 <0>         0.1200
     31 H11        -2.4795   -2.5213    0.4964 H         1 <0>         0.0955
     32 H12        -2.9330    0.5882    2.4921 H         1 <0>         0.0928
     33 H13        -3.7796   -0.6786    1.5719 H         1 <0>         0.1070
     34 H14        -3.0751   -2.3660    3.2468 H         1 <0>         0.0844
     35 H15        -2.2286   -1.0992    4.1670 H         1 <0>         0.0742
     36 H16        -4.3722    0.1080    4.4772 H         1 <0>         0.0678
     37 H17        -5.2188   -1.1588    3.5570 H         1 <0>         0.0792
     38 H18        -4.5143   -2.8462    5.2319 H         1 <0>         0.0916
     39 H19        -3.6678   -1.5793    6.1521 H         1 <0>         0.0467
     40 H20        -5.4945    0.6384    6.1885 H         1 <0>         0.0775
     41 H21        -6.5451    0.0052    7.4783 H         1 <0>         0.0776
     42 H22        -4.7825   -0.2236    7.5735 H         1 <0>         0.0360
     43 H23        -5.3177   -2.9153    7.6070 H         1 <0>         0.0871
     44 H24        -6.9092   -2.1402    7.7927 H         1 <0>         0.1231
     45 H25        -0.4888    1.4557    2.1448 H         1 <0>         0.3968
     46 H26         0.7047    0.9138    3.1958 H         1 <0>         0.4257
     47 H27        -2.3389   -0.1252   -0.2592 H         1 <0>         0.4348
@<TRIPOS>BOND
     1    1    2 1
     2    1   21 1
     3    1   22 1
     4    1   23 1
     5    2    3 1
     6    2    4 1
     7    2   24 1
     8    3   25 1
     9    3   26 1
    10    3   27 1
    11    4    5 1
    12    4   28 1
    13    4   47 1
    14    5    6 1
    15    5    7 1
    16    5   18 1
    17    6   29 1
    18    6   30 1
    19    6   31 1
    20    7    8 1
    21    7   32 1
    22    7   33 1
    23    8    9 1
    24    8   34 1
    25    8   35 1
    26    9   10 1
    27    9   36 1
    28    9   37 1
    29   10   11 1
    30   10   38 1
    31   10   39 1
    32   11   12 1
    33   11   13 1
    34   12   40 1
    35   12   41 1
    36   12   42 1
    37   13   14 1
    38   13   43 1
    39   13   44 1
    40   14   15 1
    41   14   16 1
    42   14   17 1
    43   18   19 2
    44   18   20 am
    45   20   45 1
    46   20   46 1
@<TRIPOS>MOLECULE
ZINC51827009
   47    47     0     0     0
SMALL
USER_CHARGES

@<TRIPOS>ATOM
      1 C1         -0.0178    1.4648    0.0101 C.3       1 <0>        -0.0668
      2 N1          0.0021   -0.0041    0.0020 N.4       1 <0>        -0.3672
      3 C2         -1.3761   -0.5125    0.0124 C.3       1 <0>        -0.0433
      4 C3         -2.0780   -0.1101   -1.2861 C.3       1 <0>         0.0860
      5 H1         -2.0144    0.9705   -1.4137 H         1 <0>         0.1361
      6 C4         -3.5477   -0.5306   -1.2229 C.3       1 <0>         0.0298
      7 O1         -4.2302   -0.0527   -2.3839 O.3       1 <0>        -0.2908
      8 C5         -5.5551   -0.3427   -2.4843 C.ar      1 <0>         0.0828
      9 C6         -6.1853   -1.0661   -1.4845 C.ar      1 <0>        -0.1675
     10 C7         -7.5322   -1.3596   -1.5879 C.ar      1 <0>        -0.1154
     11 C8         -8.2533   -0.9333   -2.6877 C.ar      1 <0>        -0.0606
     12 C9         -7.6306   -0.2115   -3.6889 C.ar      1 <0>        -0.1663
     13 C10        -6.2822    0.0914   -3.5885 C.ar      1 <0>         0.1124
     14 O2         -5.6695    0.8065   -4.5697 O.3       1 <0>        -0.3071
     15 C11        -6.4781    1.2189   -5.6733 C.3       1 <0>         0.0240
     16 C12        -9.7213   -1.2564   -2.7956 C.3       1 <0>        -0.0564
     17 C13       -10.5265   -0.1550   -2.1557 C.2       1 <0>        -0.1555
     18 C14       -11.4640    0.4530   -2.8394 C.2       1 <0>        -0.1846
     19 O3         -1.4442   -0.7583   -2.3908 O.3       1 <0>        -0.5394
     20 C15         0.7126   -0.4907    1.1921 C.3       1 <0>        -0.0332
     21 C16         2.1584   -0.0720    1.1202 C.2       1 <0>         0.5076
     22 O4          2.5577    0.5687    0.1710 O.2       1 <0>        -0.5255
     23 N2          3.0078   -0.4095    2.1107 N.am      1 <0>        -0.8246
     24 H2          1.0047    1.8421    0.0024 H         1 <0>         0.1439
     25 H3         -0.5450    1.8259   -0.8730 H         1 <0>         0.1297
     26 H4         -0.5280    1.8163    0.9069 H         1 <0>         0.1224
     27 H5         -1.3618   -1.5992    0.0960 H         1 <0>         0.1410
     28 H6         -1.9129   -0.0898    0.8617 H         1 <0>         0.1472
     29 H7         -3.6133   -1.6179   -1.1847 H         1 <0>         0.0757
     30 H8         -4.0087   -0.1072   -0.3305 H         1 <0>         0.0797
     31 H9         -5.6241   -1.4010   -0.6246 H         1 <0>         0.1312
     32 H10        -8.0222   -1.9236   -0.8080 H         1 <0>         0.1305
     33 H11        -8.1961    0.1200   -4.5472 H         1 <0>         0.1389
     34 H12        -6.8940    0.3407   -6.1672 H         1 <0>         0.0579
     35 H13        -7.2893    1.8514   -5.3130 H         1 <0>         0.0578
     36 H14        -5.8677    1.7791   -6.3816 H         1 <0>         0.1045
     37 H15        -9.9976   -1.3451   -3.8463 H         1 <0>         0.0793
     38 H16        -9.9244   -2.1982   -2.2858 H         1 <0>         0.0865
     39 H17       -10.3306    0.1332   -1.1334 H         1 <0>         0.1098
     40 H18       -12.0411    1.2424   -2.3808 H         1 <0>         0.1010
     41 H19       -11.6599    0.1649   -3.8617 H         1 <0>         0.0981
     42 H20        -1.4630   -1.7240   -2.3437 H         1 <0>         0.3892
     43 H21         0.2557   -0.0671    2.0865 H         1 <0>         0.1624
     44 H22         0.6508   -1.5782    1.2328 H         1 <0>         0.1619
     45 H23         2.6885   -0.9219    2.8699 H         1 <0>         0.4139
     46 H24         3.9385   -0.1400    2.0644 H         1 <0>         0.4250
     47 H25         0.4744   -0.3295   -0.8281 H         1 <0>         0.4381
@<TRIPOS>BOND
     1    1    2 1
     2    1   24 1
     3    1   25 1
     4    1   26 1
     5    2    3 1
     6    2   20 1
     7    2   47 1
     8    3    4 1
     9    3   27 1
    10    3   28 1
    11    4    5 1
    12    4    6 1
    13    4   19 1
    14    6    7 1
    15    6   29 1
    16    6   30 1
    17    7    8 1
    18    8   13 ar
    19    8    9 ar
    20    9   10 ar
    21    9   31 1
    22   10   11 ar
    23   10   32 1
    24   11   12 ar
    25   11   16 1
    26   12   13 ar
    27   12   33 1
    28   13   14 1
    29   14   15 1
    30   15   34 1
    31   15   35 1
    32   15   36 1
    33   16   17 1
    34   16   37 1
    35   16   38 1
    36   17   18 2
    37   17   39 1
    38   18   40 1
    39   18   41 1
    40   19   42 1
    41   20   21 1
    42   20   43 1
    43   20   44 1
    44   21   22 2
    45   21   23 am
    46   23   45 1
    47   23   46 1
@<TRIPOS>MOLECULE
ZINC42961647
   52    52     0     0     0
SMALL
USER_CHARGES

@<TRIPOS>ATOM
      1 C1         -1.7218    1.8502    4.3228 C.3       1 <0>        -0.1544
      2 C2         -1.1385    0.4542    4.5502 C.3       1 <0>        -0.1236
      3 C3         -0.3842    0.0062    3.2967 C.3       1 <0>        -0.1176
      4 C4          0.1991   -1.3898    3.5241 C.3       1 <0>         0.0435
      5 N1          0.9234   -1.8199    2.3206 N.3       1 <0>        -0.5213
      6 C5          0.0052   -1.9916    1.1869 C.3       1 <0>         0.0432
      7 C6          0.8034   -2.3647   -0.0639 C.3       1 <0>         0.0600
      8 O1          1.0030   -3.7793   -0.0973 O.3       1 <0>        -0.5804
      9 C7          1.6820   -3.0519    2.5749 C.3       1 <0>         0.1221
     10 H1          1.0652   -3.9160    2.3280 H         1 <0>         0.0877
     11 C8          2.0707   -3.1113    4.0297 C.ar      1 <0>        -0.1892
     12 C9          2.7612   -2.0595    4.6031 C.ar      1 <0>        -0.0662
     13 C10         3.1190   -2.1117    5.9363 C.ar      1 <0>        -0.1527
     14 C11         2.7846   -3.2205    6.7002 C.ar      1 <0>         0.1555
     15 C12         2.0913   -4.2743    6.1226 C.ar      1 <0>        -0.2086
     16 C13         1.7312   -4.2149    4.7902 C.ar      1 <0>        -0.0683
     17 O2          3.1358   -3.2744    8.0119 O.3       1 <0>        -0.3094
     18 C14         2.7584   -4.4466    8.7369 C.3       1 <0>         0.0225
     19 C15         2.9435   -3.0618    1.7092 C.3       1 <0>         0.0246
     20 H2          2.6623   -3.1231    0.6579 H         1 <0>         0.1566
     21 C16         3.7378   -1.7766    1.9505 C.3       1 <0>        -0.1571
     22 C17         4.9099   -1.7096    0.9694 C.3       1 <0>        -0.1723
     23 N2          3.7712   -4.2227    2.0631 N.4       1 <0>        -0.6343
     24 H3         -2.4076    1.8239    3.4760 H         1 <0>         0.0547
     25 H4         -2.2592    2.1694    5.2158 H         1 <0>         0.0576
     26 H5         -0.9141    2.5520    4.1146 H         1 <0>         0.0558
     27 H6         -0.4527    0.4805    5.3970 H         1 <0>         0.0621
     28 H7         -1.9462   -0.2476    4.7584 H         1 <0>         0.0602
     29 H8         -1.0700   -0.0201    2.4499 H         1 <0>         0.0631
     30 H9          0.4235    0.7080    3.0885 H         1 <0>         0.0725
     31 H10         0.8849   -1.3635    4.3709 H         1 <0>         0.0968
     32 H11        -0.6086   -2.0916    3.7324 H         1 <0>         0.0403
     33 H12        -0.7073   -2.7849    1.4132 H         1 <0>         0.0575
     34 H13        -0.5324   -1.0600    1.0103 H         1 <0>         0.1057
     35 H14         0.2531   -2.0543   -0.9522 H         1 <0>         0.0668
     36 H15         1.7703   -1.8618   -0.0413 H         1 <0>         0.0641
     37 H16         1.5602   -4.0807   -0.8279 H         1 <0>         0.3830
     38 H17         3.0214   -1.1966    4.0080 H         1 <0>         0.1498
     39 H18         3.6590   -1.2903    6.3836 H         1 <0>         0.1404
     40 H19         1.8298   -5.1385    6.7151 H         1 <0>         0.1368
     41 H20         1.1877   -5.0331    4.3412 H         1 <0>         0.1289
     42 H21         3.0989   -4.3609    9.7688 H         1 <0>         0.1097
     43 H22         1.6736   -4.5509    8.7197 H         1 <0>         0.0613
     44 H23         3.2150   -5.3221    8.2752 H         1 <0>         0.0600
     45 H24         3.0883   -0.9143    1.8000 H         1 <0>         0.1265
     46 H25         4.1183   -1.7710    2.9719 H         1 <0>         0.0937
     47 H26         5.5595   -2.5718    1.1199 H         1 <0>         0.0483
     48 H27         4.5295   -1.7152   -0.0521 H         1 <0>         0.0673
     49 H28         5.4758   -0.7940    1.1413 H         1 <0>         0.0815
     50 H29         3.2473   -5.0703    1.9039 H         1 <0>         0.4335
     51 H30         4.6031   -4.2293    1.4922 H         1 <0>         0.4327
     52 H31         4.0315   -4.1660    3.0362 H         1 <0>         0.4288
@<TRIPOS>BOND
     1    1    2 1
     2    1   24 1
     3    1   25 1
     4    1   26 1
     5    2    3 1
     6    2   27 1
     7    2   28 1
     8    3    4 1
     9    3   29 1
    10    3   30 1
    11    4    5 1
    12    4   31 1
    13    4   32 1
    14    5    6 1
    15    5    9 1
    16    6    7 1
    17    6   33 1
    18    6   34 1
    19    7    8 1
    20    7   35 1
    21    7   36 1
    22    8   37 1
    23    9   10 1
    24    9   11 1
    25    9   19 1
    26   11   16 ar
    27   11   12 ar
    28   12   13 ar
    29   12   38 1
    30   13   14 ar
    31   13   39 1
    32   14   15 ar
    33   14   17 1
    34   15   16 ar
    35   15   40 1
    36   16   41 1
    37   17   18 1
    38   18   42 1
    39   18   43 1
    40   18   44 1
    41   19   20 1
    42   19   21 1
    43   19   23 1
    44   21   22 1
    45   21   45 1
    46   21   46 1
    47   22   47 1
    48   22   48 1
    49   22   49 1
    50   23   50 1
    51   23   51 1
    52   23   52 1
@<TRIPOS>MOLECULE
ZINC08873182
   35    36     0     0     0
SMALL
USER_CHARGES
1,1,1-trifluoro-3-[2-(1H-indol-3-yl)ethylamino]propan-2-ol
@<TRIPOS>ATOM
      1 C1         -0.7161    3.7459    0.0298 C.ar      1 <0>        -0.1314
      2 C2          0.6112    4.1528    0.0193 C.ar      1 <0>        -0.0930
      3 C3          1.6301    3.2259    0.0042 C.ar      1 <0>        -0.1212
      4 C4          1.3287    1.8677   -0.0006 C.ar      1 <0>         0.0939
      5 C5         -0.0178    1.4607    0.0101 C.ar      1 <0>        -0.1010
      6 C6         -1.0347    2.4173    0.0299 C.ar      1 <0>        -0.0852
      7 C7          0.0021   -0.0041    0.0020 C.2       1 <0>        -0.2079
      8 C8          1.2910   -0.3789   -0.0123 C.2       1 <0>         0.0866
      9 N1          2.0981    0.7260   -0.0140 N.pl3     1 <0>        -0.5874
     10 H1          3.0679    0.7076   -0.0237 H         1 <0>         0.4236
     11 C9         -1.1970   -0.9169    0.0090 C.3       1 <0>        -0.0584
     12 C10        -1.6931   -1.1181   -1.4243 C.3       1 <0>        -0.0046
     13 C11        -3.3667   -2.2243   -2.7800 C.3       1 <0>        -0.0443
     14 C12        -4.5811   -3.1538   -2.7323 C.3       1 <0>         0.0455
     15 H2         -5.3626   -2.6996   -2.1231 H         1 <0>         0.1685
     16 C13        -5.1068   -3.3793   -4.1513 C.3       1 <0>         0.4325
     17 F1         -4.1038   -3.9622   -4.9331 F         1 <0>        -0.1743
     18 F2         -6.2172   -4.2292   -4.1077 F         1 <0>        -0.1555
     19 F3         -5.4802   -2.1525   -4.7107 F         1 <0>        -0.1692
     20 O1         -4.1997   -4.4069   -2.1609 O.3       1 <0>        -0.5221
     21 H3         -1.5030    4.4855    0.0412 H         1 <0>         0.1275
     22 H4          0.8473    5.2067    0.0226 H         1 <0>         0.1320
     23 H5          2.6595    3.5524   -0.0042 H         1 <0>         0.1259
     24 H6         -2.0694    2.1082    0.0431 H         1 <0>         0.1182
     25 H7          1.6393   -1.4012   -0.0211 H         1 <0>         0.1734
     26 H8         -0.9177   -1.8804    0.4354 H         1 <0>         0.0930
     27 H9         -1.9901   -0.4704    0.6087 H         1 <0>         0.0936
     28 H10        -1.9724   -0.1546   -1.8507 H         1 <0>         0.1348
     29 H11        -0.9000   -1.5646   -2.0240 H         1 <0>         0.1331
     30 H12        -3.6576   -1.2686   -3.2158 H         1 <0>         0.1576
     31 H13        -2.5852   -2.6786   -3.3891 H         1 <0>         0.1492
     32 H14        -3.5063   -4.8684   -2.6522 H         1 <0>         0.4031
     33 N2         -2.8663   -2.0122   -1.4087 N.4       1 <0>        -0.5115
     34 H15        -3.6079   -1.5880   -0.8393 H         1 <0>         0.4367
     35 H16        -2.5978   -2.9162   -1.0026 H         1 <0>         0.4382
@<TRIPOS>BOND
     1    1    6 ar
     2    1    2 ar
     3    1   21 1
     4    2    3 ar
     5    2   22 1
     6    3    4 ar
     7    3   23 1
     8    4    9 1
     9    4    5 ar
    10    5    6 ar
    11    5    7 1
    12    6   24 1
    13    7    8 2
    14    7   11 1
    15    8    9 1
    16    8   25 1
    17    9   10 1
    18   11   12 1
    19   11   26 1
    20   11   27 1
    21   12   28 1
    22   12   29 1
    23   12   33 1
    24   13   14 1
    25   13   30 1
    26   13   31 1
    27   13   33 1
    28   14   15 1
    29   14   16 1
    30   14   20 1
    31   16   17 1
    32   16   18 1
    33   16   19 1
    34   20   32 1
    35   33   34 1
    36   33   35 1
@<TRIPOS>MOLECULE
ZINC37740102
   43    43     0     0     0
SMALL
USER_CHARGES

@<TRIPOS>ATOM
      1 C1         -0.0187    1.5258    0.0104 C.3       1 <0>        -0.1604
      2 C2          0.0021   -0.0041    0.0020 C.3       1 <0>        -0.1323
      3 C3          0.7421   -0.5109    1.2415 C.3       1 <0>        -0.1089
      4 H1          0.2852   -0.0874    2.1360 H         1 <0>         0.1229
      5 C4          2.2100   -0.0858    1.1685 C.3       1 <0>        -0.1768
      6 C5          0.6554   -2.0374    1.2986 C.3       1 <0>         0.0110
      7 H2         -0.3900   -2.3436    1.2611 H         1 <0>         0.1655
      8 C6          1.2769   -2.5282    2.5808 C.2       1 <0>         0.5011
      9 O1          2.4073   -2.9675    2.5775 O.2       1 <0>        -0.5213
     10 N1          0.5764   -2.4790    3.7312 N.am      1 <0>        -0.7010
     11 C7          1.1805   -2.9562    4.9776 C.3       1 <0>         0.1121
     12 C8          0.1817   -2.7903    6.1247 C.3       1 <0>        -0.1264
     13 C9          0.8126   -3.2886    7.4264 C.3       1 <0>        -0.0898
     14 C10         1.0100   -4.8174    7.3666 C.3       1 <0>        -0.1234
     15 C11         0.7032   -5.2966    8.8072 C.3       1 <0>        -0.1283
     16 C12        -0.4761   -4.3844    9.2270 C.3       1 <0>        -0.1274
     17 C13        -0.1322   -3.0133    8.6093 C.3       1 <0>        -0.1216
     18 N2          1.3754   -2.6118    0.1542 N.4       1 <0>        -0.6224
     19 H3          1.0039    1.9031    0.0027 H         1 <0>         0.0648
     20 H4         -0.5459    1.8868   -0.8726 H         1 <0>         0.0695
     21 H5         -0.5289    1.8773    0.9072 H         1 <0>         0.0652
     22 H6         -1.0205   -0.3814    0.0098 H         1 <0>         0.0820
     23 H7          0.5123   -0.3556   -0.8948 H         1 <0>         0.0642
     24 H8          2.6669   -0.5093    0.2741 H         1 <0>         0.0566
     25 H9          2.2717    1.0017    1.1279 H         1 <0>         0.0940
     26 H10         2.7372   -0.4469    2.0516 H         1 <0>         0.0764
     27 H11        -0.3278   -2.1277    3.7338 H         1 <0>         0.4102
     28 H12         1.4435   -4.0089    4.8742 H         1 <0>         0.0820
     29 H13         2.0786   -2.3767    5.1912 H         1 <0>         0.0799
     30 H14        -0.0812   -1.7375    6.2281 H         1 <0>         0.0737
     31 H15        -0.7164   -3.3698    5.9111 H         1 <0>         0.0746
     32 H16         1.7700   -2.7939    7.5902 H         1 <0>         0.0771
     33 H17         0.3119   -5.2648    6.6590 H         1 <0>         0.0655
     34 H18         2.0375   -5.0591    7.0949 H         1 <0>         0.0659
     35 H19         0.4012   -6.3440    8.8098 H         1 <0>         0.0682
     36 H20         1.5635   -5.1399    9.4579 H         1 <0>         0.0693
     37 H21        -1.4141   -4.7618    8.8198 H         1 <0>         0.0653
     38 H22        -0.5330   -4.3100   10.3130 H         1 <0>         0.0680
     39 H23         0.3669   -2.3857    9.3476 H         1 <0>         0.0676
     40 H24        -1.0402   -2.5246    8.2560 H         1 <0>         0.0653
     41 H25         1.3182   -3.6185    0.1919 H         1 <0>         0.4406
     42 H26         0.9593   -2.2832   -0.7042 H         1 <0>         0.4407
     43 H27         2.3431   -2.3284    0.1890 H         1 <0>         0.4408
@<TRIPOS>BOND
     1    1    2 1
     2    1   19 1
     3    1   20 1
     4    1   21 1
     5    2    3 1
     6    2   22 1
     7    2   23 1
     8    3    4 1
     9    3    5 1
    10    3    6 1
    11    5   24 1
    12    5   25 1
    13    5   26 1
    14    6    7 1
    15    6    8 1
    16    6   18 1
    17    8    9 2
    18    8   10 am
    19   10   11 1
    20   10   27 1
    21   11   12 1
    22   11   28 1
    23   11   29 1
    24   12   13 1
    25   12   30 1
    26   12   31 1
    27   13   17 1
    28   13   14 1
    29   13   32 1
    30   14   15 1
    31   14   33 1
    32   14   34 1
    33   15   16 1
    34   15   35 1
    35   15   36 1
    36   16   17 1
    37   16   37 1
    38   16   38 1
    39   17   39 1
    40   17   40 1
    41   18   41 1
    42   18   42 1
    43   18   43 1
@<TRIPOS>MOLECULE
ZINC43378975
   42    42     0     0     0
SMALL
USER_CHARGES

@<TRIPOS>ATOM
      1 C1          0.0336   -1.6128   -0.4750 C.3       1 <0>        -0.1974
      2 C2         -0.1700   -1.4251    1.0298 C.3       1 <0>         0.0312
      3 H1          0.4298   -2.1565    1.5716 H         1 <0>         0.1695
      4 C3          0.2625   -0.0133    1.4308 C.3       1 <0>         0.0124
      5 H2         -0.2427    0.7153    0.7968 H         1 <0>         0.1368
      6 C4          1.7766    0.1243    1.2591 C.3       1 <0>         0.4263
      7 F1          2.0931    0.1272   -0.1037 F         1 <0>        -0.1737
      8 F2          2.2048    1.3229    1.8397 F         1 <0>        -0.1594
      9 F3          2.4165   -0.9514    1.8841 F         1 <0>        -0.1247
     10 N1         -0.0950    0.2280    2.8350 N.3       1 <0>        -0.5302
     11 C5          1.0530   -0.0129    3.7194 C.3       1 <0>        -0.0118
     12 C6          1.0693   -1.4825    4.1449 C.3       1 <0>         0.0739
     13 O1          1.7858   -2.2509    3.1763 O.3       1 <0>        -0.5613
     14 C7         -0.6242    1.5862    3.0175 C.3       1 <0>         0.0745
     15 C8          0.4904    2.6051    2.7720 C.3       1 <0>        -0.1667
     16 C9         -0.0609    4.0197    2.9621 C.3       1 <0>        -0.1186
     17 C10        -0.5876    4.1741    4.3903 C.3       1 <0>        -0.1264
     18 C11        -1.7022    3.1551    4.6358 C.3       1 <0>        -0.1196
     19 C12        -1.1509    1.7406    4.4457 C.3       1 <0>        -0.1106
     20 N2         -1.5889   -1.6147    1.3594 N.4       1 <0>        -0.6241
     21 H3          1.0965   -1.5509   -0.7083 H         1 <0>         0.1149
     22 H4         -0.3478   -2.5890   -0.7742 H         1 <0>         0.0943
     23 H5         -0.5029   -0.8322   -1.0143 H         1 <0>         0.0867
     24 H6          1.9758    0.2221    3.1891 H         1 <0>         0.0996
     25 H7          0.9702    0.6202    4.6028 H         1 <0>         0.1086
     26 H8          1.5577   -1.5744    5.1151 H         1 <0>         0.0647
     27 H9          0.0462   -1.8513    4.2167 H         1 <0>         0.0529
     28 H10         1.7739   -3.2033    3.3428 H         1 <0>         0.3764
     29 H11        -1.4358    1.7579    2.3104 H         1 <0>         0.0926
     30 H12         1.3019    2.4334    3.4791 H         1 <0>         0.0752
     31 H13         0.8656    2.4951    1.7546 H         1 <0>         0.0794
     32 H14         0.7332    4.7456    2.7872 H         1 <0>         0.0691
     33 H15        -0.8724    4.1914    2.2550 H         1 <0>         0.0633
     34 H16         0.2240    4.0023    5.0974 H         1 <0>         0.0640
     35 H17        -0.9803    5.1819    4.5257 H         1 <0>         0.0690
     36 H18        -2.0774    3.2652    5.6532 H         1 <0>         0.0721
     37 H19        -2.5137    3.3269    3.9287 H         1 <0>         0.0650
     38 H20        -1.9450    1.0147    4.6206 H         1 <0>         0.0717
     39 H21        -0.3394    1.5688    5.1528 H         1 <0>         0.0705
     40 H22        -1.8544   -2.5689    1.1666 H         1 <0>         0.4384
     41 H23        -1.7365   -1.4156    2.3374 H         1 <0>         0.4414
     42 H24        -2.1504   -0.9899    0.8004 H         1 <0>         0.4302
@<TRIPOS>BOND
     1    1    2 1
     2    1   21 1
     3    1   22 1
     4    1   23 1
     5    2    3 1
     6    2    4 1
     7    2   20 1
     8    4    5 1
     9    4    6 1
    10    4   10 1
    11    6    7 1
    12    6    8 1
    13    6    9 1
    14   10   11 1
    15   10   14 1
    16   11   12 1
    17   11   24 1
    18   11   25 1
    19   12   13 1
    20   12   26 1
    21   12   27 1
    22   13   28 1
    23   14   19 1
    24   14   15 1
    25   14   29 1
    26   15   16 1
    27   15   30 1
    28   15   31 1
    29   16   17 1
    30   16   32 1
    31   16   33 1
    32   17   18 1
    33   17   34 1
    34   17   35 1
    35   18   19 1
    36   18   36 1
    37   18   37 1
    38   19   38 1
    39   19   39 1
    40   20   40 1
    41   20   41 1
    42   20   42 1
@<TRIPOS>MOLECULE
ZINC51327120
   45    45     0     0     0
SMALL
USER_CHARGES

@<TRIPOS>ATOM
      1 C1         -0.1741    1.3977    0.1706 C.3       1 <0>        -0.1870
      2 C2          0.0413   -0.1143    0.0801 C.3       1 <0>         0.0194
      3 H1          0.5967   -0.4552    0.9539 H         1 <0>         0.1380
      4 C3          0.8333   -0.4418   -1.1873 C.3       1 <0>        -0.1408
      5 C4          2.2387    0.1531   -1.0783 C.3       1 <0>        -0.0913
      6 C5          2.9976   -0.5362    0.0574 C.3       1 <0>        -0.1599
      7 C6          2.9869   -0.0615   -2.3956 C.3       1 <0>        -0.1542
      8 N1         -1.2610   -0.7924    0.0326 N.4       1 <0>        -0.3797
      9 C7         -1.0559   -2.2470    0.0292 C.3       1 <0>        -0.0578
     10 C8         -2.0542   -0.4125    1.2093 C.3       1 <0>        -0.0480
     11 C9         -3.4546   -1.0185    1.0977 C.3       1 <0>         0.1360
     12 H2         -3.3775   -2.1046    1.0467 H         1 <0>         0.1285
     13 C10        -4.2682   -0.6288    2.3048 C.ar      1 <0>        -0.0903
     14 C11        -4.9421    0.5789    2.3230 C.ar      1 <0>        -0.1694
     15 C12        -5.6894    0.9406    3.4287 C.ar      1 <0>        -0.0601
     16 C13        -5.7656    0.0960    4.5190 C.ar      1 <0>        -0.1822
     17 C14        -5.0904   -1.1176    4.5039 C.ar      1 <0>         0.2266
     18 C15        -4.3447   -1.4803    3.3891 C.ar      1 <0>        -0.1874
     19 N2         -5.1653   -1.9740    5.6047 N.pl3     1 <0>        -0.8725
     20 O1         -4.0921   -0.5302   -0.0843 O.3       1 <0>        -0.5478
     21 H3          0.7922    1.9008    0.2059 H         1 <0>         0.1080
     22 H4         -0.7295    1.7386   -0.7032 H         1 <0>         0.0827
     23 H5         -0.7383    1.6310    1.0735 H         1 <0>         0.0819
     24 H6          0.9044   -1.5234   -1.3020 H         1 <0>         0.0887
     25 H7          0.3252   -0.0172   -2.0531 H         1 <0>         0.0891
     26 H8          2.1663    1.2208   -0.8714 H         1 <0>         0.0829
     27 H9          4.0286   -0.1828    0.0724 H         1 <0>         0.0691
     28 H10         2.5194   -0.3022    1.0085 H         1 <0>         0.0534
     29 H11         2.9856   -1.6148   -0.0997 H         1 <0>         0.0604
     30 H12         2.4462    0.4295   -3.2047 H         1 <0>         0.0602
     31 H13         3.9881    0.3623   -2.3180 H         1 <0>         0.0670
     32 H14         3.0593   -1.1292   -2.6025 H         1 <0>         0.0597
     33 H15        -2.0169   -2.7492   -0.0822 H         1 <0>         0.1261
     34 H16        -0.4048   -2.5202   -0.8012 H         1 <0>         0.1277
     35 H17        -0.5938   -2.5510    0.9684 H         1 <0>         0.1222
     36 H18        -1.5679   -0.7849    2.1109 H         1 <0>         0.1407
     37 H19        -2.1312    0.6736    1.2602 H         1 <0>         0.1394
     38 H20        -4.8842    1.2411    1.4718 H         1 <0>         0.1185
     39 H21        -6.2138    1.8846    3.4399 H         1 <0>         0.1303
     40 H22        -6.3491    0.3793    5.3825 H         1 <0>         0.1281
     41 H23        -3.8218   -2.4251    3.3725 H         1 <0>         0.1229
     42 H24        -5.6893   -1.7214    6.3810 H         1 <0>         0.4049
     43 H25        -4.6934   -2.8214    5.5930 H         1 <0>         0.4015
     44 H26        -4.1945    0.4311   -0.1075 H         1 <0>         0.3884
     45 H27        -1.7517   -0.5200   -0.8060 H         1 <0>         0.4262
@<TRIPOS>BOND
     1    1    2 1
     2    1   21 1
     3    1   22 1
     4    1   23 1
     5    2    3 1
     6    2    4 1
     7    2    8 1
     8    4    5 1
     9    4   24 1
    10    4   25 1
    11    5    6 1
    12    5    7 1
    13    5   26 1
    14    6   27 1
    15    6   28 1
    16    6   29 1
    17    7   30 1
    18    7   31 1
    19    7   32 1
    20    8    9 1
    21    8   10 1
    22    8   45 1
    23    9   33 1
    24    9   34 1
    25    9   35 1
    26   10   11 1
    27   10   36 1
    28   10   37 1
    29   11   12 1
    30   11   13 1
    31   11   20 1
    32   13   18 ar
    33   13   14 ar
    34   14   15 ar
    35   14   38 1
    36   15   16 ar
    37   15   39 1
    38   16   17 ar
    39   16   40 1
    40   17   18 ar
    41   17   19 1
    42   18   41 1
    43   19   42 1
    44   19   43 1
    45   20   44 1
@<TRIPOS>MOLECULE
ZINC55024136
   39    40     0     0     0
SMALL
USER_CHARGES

@<TRIPOS>ATOM
      1 C1         -1.7187   -0.6246    9.1209 C.3       1 <0>         0.0229
      2 O1         -1.6454   -1.9071    8.4950 O.3       1 <0>        -0.3119
      3 C2         -0.6359   -2.1029    7.6048 C.ar      1 <0>         0.1430
      4 C3          0.2671   -1.0823    7.3455 C.ar      1 <0>        -0.1906
      5 C4          1.2922   -1.2798    6.4416 C.ar      1 <0>        -0.0485
      6 C5          1.4192   -2.5013    5.7922 C.ar      1 <0>        -0.1271
      7 C6          0.5146   -3.5229    6.0530 C.ar      1 <0>        -0.0834
      8 C7         -0.5067   -3.3249    6.9612 C.ar      1 <0>        -0.1347
      9 S1          2.7263   -2.7546    4.6381 S.3       1 <0>        -0.1205
     10 C8          2.6080   -4.5159    4.2206 C.3       1 <0>        -0.0358
     11 H1          1.5802   -4.7568    3.9495 H         1 <0>         0.1136
     12 C9          3.5322   -4.8235    3.0407 C.3       1 <0>        -0.1047
     13 C10         3.0294   -4.1131    1.8104 C.cat     1 <0>         0.5459
     14 N1          2.2014   -4.7283    0.9840 N.pl3     1 <0>        -0.7534
     15 N2          3.4165   -2.8748    1.5578 N.pl3     1 <0>        -0.7415
     16 C11         3.0207   -5.3431    5.4108 C.ar      1 <0>        -0.1097
     17 C12         4.2896   -5.2054    5.9417 C.ar      1 <0>        -0.0934
     18 C13         4.6681   -5.9642    7.0334 C.ar      1 <0>        -0.1125
     19 C14         3.7776   -6.8603    7.5946 C.ar      1 <0>        -0.0992
     20 C15         2.5084   -6.9973    7.0642 C.ar      1 <0>        -0.1116
     21 C16         2.1284   -6.2354    5.9751 C.ar      1 <0>        -0.1040
     22 H2         -1.8465    0.1446    8.3593 H         1 <0>         0.0595
     23 H3         -2.5666   -0.6025    9.8056 H         1 <0>         0.1077
     24 H4         -0.7991   -0.4378    9.6753 H         1 <0>         0.0601
     25 H5          0.1682   -0.1328    7.8505 H         1 <0>         0.1395
     26 H6          1.9947   -0.4849    6.2393 H         1 <0>         0.1325
     27 H7          0.6124   -4.4729    5.5487 H         1 <0>         0.1292
     28 H8         -1.2077   -4.1202    7.1672 H         1 <0>         0.1387
     29 H9          4.5413   -4.4817    3.2708 H         1 <0>         0.1401
     30 H10         3.5450   -5.8983    2.8598 H         1 <0>         0.1478
     31 H11         1.8778   -4.2710    0.1921 H         1 <0>         0.4324
     32 H12         4.0242   -2.4233    2.1643 H         1 <0>         0.4486
     33 H13         3.0929   -2.4175    0.7659 H         1 <0>         0.4321
     34 H14         4.9853   -4.5053    5.5033 H         1 <0>         0.1272
     35 H15         5.6597   -5.8571    7.4478 H         1 <0>         0.1304
     36 H16         4.0736   -7.4536    8.4471 H         1 <0>         0.1298
     37 H17         1.8128   -7.6977    7.5024 H         1 <0>         0.1301
     38 H18         1.1356   -6.3398    5.5631 H         1 <0>         0.1229
     39 H19         1.9174   -5.6370    1.1694 H         1 <0>         0.4482
@<TRIPOS>BOND
     1    1    2 1
     2    1   22 1
     3    1   23 1
     4    1   24 1
     5    2    3 1
     6    3    8 ar
     7    3    4 ar
     8    4    5 ar
     9    4   25 1
    10    5    6 ar
    11    5   26 1
    12    6    7 ar
    13    6    9 1
    14    7    8 ar
    15    7   27 1
    16    8   28 1
    17    9   10 1
    18   10   11 1
    19   10   12 1
    20   10   16 1
    21   12   13 1
    22   12   29 1
    23   12   30 1
    24   13   14 2
    25   13   15 1
    26   14   31 1
    27   14   39 1
    28   15   32 1
    29   15   33 1
    30   16   21 ar
    31   16   17 ar
    32   17   18 ar
    33   17   34 1
    34   18   19 ar
    35   18   35 1
    36   19   20 ar
    37   19   36 1
    38   20   21 ar
    39   20   37 1
    40   21   38 1
@<TRIPOS>MOLECULE
ZINC04899589
   45    45     0     0     0
SMALL
USER_CHARGES
2-acetylamino-5-guanidino-N-(4-nitrophenyl)-pentanamide
@<TRIPOS>ATOM
      1 C1          2.3930    3.9443    1.9763 C.3       1 <0>        -0.1742
      2 C2          2.2508    2.4756    1.6702 C.2       1 <0>         0.5174
      3 O1          3.2092    1.8413    1.2826 O.2       1 <0>        -0.5126
      4 N1          1.0586    1.8668    1.8272 N.am      1 <0>        -0.7278
      5 C3          0.9204    0.4390    1.5297 C.3       1 <0>         0.1420
      6 H1         -0.1075    0.1271    1.7147 H         1 <0>         0.1178
      7 C4          1.2737    0.1872    0.0624 C.3       1 <0>        -0.1350
      8 C5          0.2524    0.8885   -0.8354 C.3       1 <0>        -0.1274
      9 C6          0.6055    0.6369   -2.3027 C.3       1 <0>         0.0925
     10 N2         -0.3722    1.3083   -3.1625 N.pl3     1 <0>        -0.6982
     11 C7         -0.2586    1.2227   -4.5299 C.cat     1 <0>         0.7391
     12 N3         -1.1763    1.8528   -5.3368 N.pl3     1 <0>        -0.8066
     13 C8          1.8516   -0.3506    2.4131 C.2       1 <0>         0.4971
     14 O2          2.7989    0.1958    2.9375 O.2       1 <0>        -0.4706
     15 N4          1.6317   -1.6641    2.6205 N.am      1 <0>        -0.6746
     16 C9          2.5484   -2.4186    3.3608 C.ar      1 <0>         0.1967
     17 C10         2.7879   -3.7453    3.0273 C.ar      1 <0>        -0.1455
     18 C11         3.6981   -4.4855    3.7561 C.ar      1 <0>        -0.0323
     19 C12         4.3614   -3.9106    4.8247 C.ar      1 <0>        -0.0582
     20 C13         4.1209   -2.5916    5.1629 C.ar      1 <0>        -0.0315
     21 C14         3.2165   -1.8441    4.4342 C.ar      1 <0>        -0.1220
     22 N5          5.3312   -4.7088    5.6079 N.pl3     1 <0>         0.0270
     23 O3          5.9164   -4.2036    6.5490 O.2       1 <0>        -0.1554
     24 O4          5.5440   -5.8707    5.3111 O.3       1 <0>        -0.1568
     25 H2          2.6708    4.0722    3.0226 H         1 <0>         0.0986
     26 H3          3.1660    4.3749    1.3398 H         1 <0>         0.0950
     27 H4          1.4449    4.4481    1.7879 H         1 <0>         0.0790
     28 H5          0.2921    2.3740    2.1372 H         1 <0>         0.4098
     29 H6          1.2571   -0.8843   -0.1366 H         1 <0>         0.0850
     30 H7          2.2692    0.5799   -0.1441 H         1 <0>         0.1045
     31 H8         -0.7432    0.4959   -0.6289 H         1 <0>         0.0848
     32 H9          0.2689    1.9601   -0.6365 H         1 <0>         0.0853
     33 H10         1.6012    1.0294   -2.5093 H         1 <0>         0.0939
     34 H11         0.5890   -0.4348   -2.5017 H         1 <0>         0.0939
     35 H12        -1.0999    1.8133   -2.7669 H         1 <0>         0.4333
     36 H13         0.8840    0.4251   -6.0154 H         1 <0>         0.4521
     37 H14        -1.9039    2.3578   -4.9414 H         1 <0>         0.4401
     38 H15        -1.0960    1.7924   -6.3016 H         1 <0>         0.4394
     39 H16         0.8379   -2.0863    2.2565 H         1 <0>         0.4158
     40 H17         2.2667   -4.1962    2.1958 H         1 <0>         0.1501
     41 H18         3.8884   -5.5158    3.4944 H         1 <0>         0.1600
     42 H19         4.6405   -2.1454    5.9981 H         1 <0>         0.1590
     43 H20         3.0293   -0.8138    4.6986 H         1 <0>         0.1593
     44 N6          0.7570    0.5182   -5.0075 N.pl3     1 <0>        -0.7955
     45 H21         1.4162    0.0659   -4.3632 H         1 <0>         0.4556
@<TRIPOS>BOND
     1    1    2 1
     2    1   25 1
     3    1   26 1
     4    1   27 1
     5    2    3 2
     6    2    4 am
     7    4    5 1
     8    4   28 1
     9    5    6 1
    10    5    7 1
    11    5   13 1
    12    7    8 1
    13    7   29 1
    14    7   30 1
    15    8    9 1
    16    8   31 1
    17    8   32 1
    18    9   10 1
    19    9   33 1
    20    9   34 1
    21   10   11 1
    22   10   35 1
    23   11   12 1
    24   11   44 2
    25   12   37 1
    26   12   38 1
    27   13   14 2
    28   13   15 am
    29   15   16 1
    30   15   39 1
    31   16   21 ar
    32   16   17 ar
    33   17   18 ar
    34   17   40 1
    35   18   19 ar
    36   18   41 1
    37   19   20 ar
    38   19   22 1
    39   20   21 ar
    40   20   42 1
    41   21   43 1
    42   22   23 2
    43   22   24 1
    44   36   44 1
    45   44   45 1
@<TRIPOS>MOLECULE
ZINC05869252
   43    43     0     0     0
SMALL
USER_CHARGES

@<TRIPOS>ATOM
      1 C1         -0.0187    1.5258    0.0104 C.3       1 <0>        -0.1536
      2 C2          0.0021   -0.0041    0.0020 C.3       1 <0>         0.0596
      3 O1         -1.3386   -0.4987    0.0122 O.3       1 <0>        -0.3549
      4 C3         -1.4964   -1.8317    0.0065 C.2       1 <0>         0.4568
      5 O2         -0.5283   -2.5546   -0.0066 O.2       1 <0>        -0.5060
      6 C4         -2.8809   -2.4266    0.0165 C.3       1 <0>        -0.1130
      7 C5         -2.7801   -3.9532    0.0074 C.3       1 <0>        -0.1126
      8 C6         -4.1859   -4.5572    0.0176 C.3       1 <0>        -0.1150
      9 C7         -4.0851   -6.0838    0.0084 C.3       1 <0>        -0.1496
     10 C8         -5.4908   -6.6878    0.0186 C.3       1 <0>         0.1678
     11 H1         -6.0653   -6.2852   -0.8156 H         1 <0>         0.1466
     12 C9         -5.3948   -8.1859   -0.1142 C.2       1 <0>         0.1847
     13 N1         -4.3079   -8.8951   -0.2173 N.2       1 <0>        -0.4769
     14 C10        -4.6471  -10.1919   -0.3155 C.2       1 <0>         0.5801
     15 O3         -3.8580  -11.1059   -0.4239 O.2       1 <0>        -0.3168
     16 N2         -5.9829  -10.3343   -0.2759 N.2       1 <0>        -0.5011
     17 C11        -6.5247   -9.1574   -0.1478 C.2       1 <0>         0.2133
     18 C12        -7.9952   -8.8413   -0.0554 C.3       1 <0>        -0.0896
     19 S1         -8.9513  -10.3803   -0.1455 S.3       1 <0>         0.1267
     20 C13       -10.6269   -9.8488   -0.0255 C.cat     1 <0>         0.4745
     21 N3        -11.5922  -10.5476   -0.6228 N.pl3     1 <0>        -0.7316
     22 N4        -10.9293   -8.7479    0.6625 N.pl3     1 <0>        -0.7642
     23 O4         -6.1415   -6.3593    1.2477 O.3       1 <0>        -0.5381
     24 H2          1.0039    1.9031    0.0027 H         1 <0>         0.0818
     25 H3         -0.5459    1.8868   -0.8726 H         1 <0>         0.0673
     26 H4         -0.5289    1.8773    0.9072 H         1 <0>         0.0673
     27 H5          0.5123   -0.3556   -0.8948 H         1 <0>         0.0684
     28 H6          0.5293   -0.3651    0.8851 H         1 <0>         0.0684
     29 H7         -3.4091   -2.1027    0.9134 H         1 <0>         0.1072
     30 H8         -3.4261   -2.0931   -0.8665 H         1 <0>         0.1068
     31 H9         -2.2520   -4.2771   -0.8894 H         1 <0>         0.0747
     32 H10        -2.2350   -4.2867    0.8904 H         1 <0>         0.0747
     33 H11        -4.7140   -4.2333    0.9144 H         1 <0>         0.0769
     34 H12        -4.7310   -4.2237   -0.8655 H         1 <0>         0.0700
     35 H13        -3.5569   -6.4077   -0.8884 H         1 <0>         0.0894
     36 H14        -3.5399   -6.4173    0.8914 H         1 <0>         0.0823
     37 H15        -8.2006   -8.3408    0.8909 H         1 <0>         0.1585
     38 H16        -8.2791   -8.1884   -0.8808 H         1 <0>         0.1639
     39 H17       -11.3722  -11.3488   -1.1234 H         1 <0>         0.4525
     40 H18       -10.2269   -8.2393    1.0971 H         1 <0>         0.4431
     41 H19       -11.8518   -8.4553    0.7286 H         1 <0>         0.4335
     42 H20        -5.6845   -6.6868    2.0344 H         1 <0>         0.3912
     43 H21       -12.5147  -10.2551   -0.5567 H         1 <0>         0.4352
@<TRIPOS>BOND
     1    1    2 1
     2    1   24 1
     3    1   25 1
     4    1   26 1
     5    2    3 1
     6    2   27 1
     7    2   28 1
     8    3    4 1
     9    4    5 2
    10    4    6 1
    11    6    7 1
    12    6   29 1
    13    6   30 1
    14    7    8 1
    15    7   31 1
    16    7   32 1
    17    8    9 1
    18    8   33 1
    19    8   34 1
    20    9   10 1
    21    9   35 1
    22    9   36 1
    23   10   11 1
    24   10   12 1
    25   10   23 1
    26   12   17 1
    27   12   13 2
    28   13   14 1
    29   14   15 2
    30   14   16 1
    31   16   17 2
    32   17   18 1
    33   18   19 1
    34   18   37 1
    35   18   38 1
    36   19   20 1
    37   20   21 2
    38   20   22 1
    39   21   39 1
    40   21   43 1
    41   22   40 1
    42   22   41 1
    43   23   42 1
@<TRIPOS>MOLECULE
ZINC43209438
   62    64     0     0     0
SMALL
USER_CHARGES

@<TRIPOS>ATOM
      1 C1         -0.0167    1.3781    0.0096 C.ar      1 <0>        -0.1043
      2 C2          1.1709    2.0855    0.0021 C.ar      1 <0>        -0.1221
      3 C3          2.3773    1.4107   -0.0130 C.ar      1 <0>        -0.0936
      4 C4          2.3960    0.0285   -0.0201 C.ar      1 <0>        -0.1056
      5 C5          1.2084   -0.6789   -0.0117 C.ar      1 <0>        -0.0938
      6 C6          0.0021   -0.0041    0.0020 C.ar      1 <0>        -0.1224
      7 C7          3.7112   -0.7071   -0.0376 C.3       1 <0>         0.1301
      8 O1          4.1410   -0.9464    1.3041 O.3       1 <0>        -0.3580
      9 C8          5.3077   -1.5988    1.4650 C.2       1 <0>         0.6479
     10 O2          5.9435   -1.9553    0.4929 O.2       1 <0>        -0.5676
     11 N1          5.7703   -1.8565    2.7044 N.am      1 <0>        -0.7143
     12 C9          7.0397   -2.5664    2.8795 C.3       1 <0>         0.1358
     13 C10         7.3317   -2.7285    4.3726 C.3       1 <0>        -0.1356
     14 C11         8.6575   -3.4699    4.5555 C.3       1 <0>        -0.1295
     15 C12         8.9495   -3.6319    6.0486 C.3       1 <0>        -0.1455
     16 C13        10.2753   -4.3734    6.2315 C.3       1 <0>         0.1449
     17 H1         11.0623   -3.8495    5.6891 H         1 <0>         0.1735
     18 C14        10.6239   -4.4252    7.6967 C.2       1 <0>        -0.1087
     19 N2         11.5207   -3.7249    8.3362 N.2       1 <0>        -0.4141
     20 C15        11.6689   -3.9300    9.6488 C.2       1 <0>         0.0072
     21 C16        10.8490   -4.8740   10.2068 C.2       1 <0>        -0.1800
     22 S1          9.9445   -5.3918    8.8892 S.3       1 <0>         0.3041
     23 C17        12.6564   -3.1848   10.4476 C.2       1 <0>         0.6084
     24 O3         12.7611   -3.4001   11.6401 O.2       1 <0>        -0.5136
     25 N3         13.4441   -2.2641    9.8573 N.am      1 <0>        -0.5832
     26 C18        13.4184   -1.9002    8.4289 C.3       1 <0>         0.1069
     27 C19        13.9935   -0.4628    8.3755 C.3       1 <0>        -0.1387
     28 C20        15.0931   -0.5264    9.4683 C.3       1 <0>        -0.1225
     29 C21        14.4668   -1.4519   10.5325 C.3       1 <0>         0.1166
     30 H2         15.2345   -2.0995   10.9559 H         1 <0>         0.1045
     31 C22        13.8299   -0.6275   11.6214 C.2       1 <0>         0.5144
     32 O4         12.6323   -0.4362   11.6155 O.2       1 <0>        -0.5305
     33 N4         14.5912   -0.1027   12.6020 N.am      1 <0>        -0.8498
     34 N5         10.1477   -5.7407    5.7099 N.4       1 <0>        -0.6379
     35 H3         -0.9591    1.9053    0.0259 H         1 <0>         0.1272
     36 H4          1.1563    3.1654    0.0076 H         1 <0>         0.1278
     37 H5          3.3051    1.9634   -0.0196 H         1 <0>         0.1246
     38 H6          1.2231   -1.7588   -0.0176 H         1 <0>         0.1243
     39 H7         -0.9258   -0.5567    0.0082 H         1 <0>         0.1277
     40 H8          3.5884   -1.6586   -0.5549 H         1 <0>         0.0795
     41 H9          4.4573   -0.1052   -0.5563 H         1 <0>         0.0797
     42 H10         5.2627   -1.5719    3.4805 H         1 <0>         0.4097
     43 H11         6.9735   -3.5496    2.4135 H         1 <0>         0.0720
     44 H12         7.8425   -1.9961    2.4121 H         1 <0>         0.0743
     45 H13         7.3979   -1.7454    4.8387 H         1 <0>         0.0840
     46 H14         6.5290   -3.2988    4.8400 H         1 <0>         0.0806
     47 H15         8.5913   -4.4530    4.0895 H         1 <0>         0.0676
     48 H16         9.4602   -2.8996    4.0881 H         1 <0>         0.0907
     49 H17         9.0157   -2.6488    6.5147 H         1 <0>         0.1228
     50 H18         8.1468   -4.2023    6.5160 H         1 <0>         0.0978
     51 H19        10.7949   -5.2005   11.2348 H         1 <0>         0.2230
     52 H20        14.0450   -2.5811    7.8527 H         1 <0>         0.0714
     53 H21        12.3957   -1.9139    8.0523 H         1 <0>         0.0993
     54 H22        14.4261   -0.2512    7.3977 H         1 <0>         0.0930
     55 H23        13.2308    0.2728    8.6310 H         1 <0>         0.0806
     56 H24        16.0102   -0.9585    9.0678 H         1 <0>         0.0951
     57 H25        15.2814    0.4635    9.8840 H         1 <0>         0.0914
     58 H26        15.5491   -0.2556   12.6068 H         1 <0>         0.4034
     59 H27        14.1813    0.4280   13.3029 H         1 <0>         0.4070
     60 H28         9.9143   -5.7060    4.7289 H         1 <0>         0.4464
     61 H29        11.0220   -6.2297    5.8305 H         1 <0>         0.4428
     62 H30         9.4191   -6.2256    6.2120 H         1 <0>         0.4331
@<TRIPOS>BOND
     1    1    6 ar
     2    1    2 ar
     3    1   35 1
     4    2    3 ar
     5    2   36 1
     6    3    4 ar
     7    3   37 1
     8    4    5 ar
     9    4    7 1
    10    5    6 ar
    11    5   38 1
    12    6   39 1
    13    7    8 1
    14    7   40 1
    15    7   41 1
    16    8    9 1
    17    9   10 2
    18    9   11 am
    19   11   12 1
    20   11   42 1
    21   12   13 1
    22   12   43 1
    23   12   44 1
    24   13   14 1
    25   13   45 1
    26   13   46 1
    27   14   15 1
    28   14   47 1
    29   14   48 1
    30   15   16 1
    31   15   49 1
    32   15   50 1
    33   16   17 1
    34   16   18 1
    35   16   34 1
    36   18   22 1
    37   18   19 2
    38   19   20 1
    39   20   21 2
    40   20   23 1
    41   21   22 1
    42   21   51 1
    43   23   24 2
    44   23   25 am
    45   25   29 1
    46   25   26 1
    47   26   27 1
    48   26   52 1
    49   26   53 1
    50   27   28 1
    51   27   54 1
    52   27   55 1
    53   28   29 1
    54   28   56 1
    55   28   57 1
    56   29   30 1
    57   29   31 1
    58   31   32 2
    59   31   33 am
    60   33   58 1
    61   33   59 1
    62   34   60 1
    63   34   61 1
    64   34   62 1
@<TRIPOS>MOLECULE
ZINC56710509
   57    58     0     0     0
SMALL
USER_CHARGES

@<TRIPOS>ATOM
      1 C1         -1.2670    1.1822    0.1825 C.3       1 <0>        -0.1163
      2 C2         -0.5855   -0.1584    0.0850 C.ar      1 <0>        -0.0662
      3 C3         -0.5719   -0.8406   -1.1159 C.ar      1 <0>        -0.1301
      4 C4          0.0552   -2.0744   -1.2058 C.ar      1 <0>         0.1255
      5 C5          0.6688   -2.6243   -0.0897 C.ar      1 <0>        -0.1981
      6 C6          0.6555   -1.9436    1.1115 C.ar      1 <0>        -0.0715
      7 C7          0.0336   -0.7053    1.2006 C.ar      1 <0>         0.1138
      8 N1          0.0251   -0.0110    2.4180 N.am      1 <0>        -0.6762
      9 C8         -0.0564   -0.6890    3.5799 C.2       1 <0>         0.7057
     10 O1         -0.0401   -1.9048    3.5768 O.2       1 <0>        -0.5675
     11 N2         -0.1560   -0.0194    4.7453 N.am      1 <0>        -0.7483
     12 C9         -0.2446   -0.7564    6.0083 C.3       1 <0>         0.1433
     13 C10        -0.3482    0.2335    7.1703 C.3       1 <0>        -0.1633
     14 C11        -0.4407   -0.5362    8.4894 C.3       1 <0>        -0.0061
     15 N3         -0.5402    0.4143    9.6050 N.4       1 <0>        -0.3837
     16 C12        -1.8011    1.1608    9.5014 C.3       1 <0>        -0.0577
     17 C13        -0.5084   -0.3191   10.8774 C.3       1 <0>         0.0447
     18 C14        -0.4866    0.6611   12.0218 C.ar      1 <0>        -0.1634
     19 C15         0.7201    1.1199   12.5160 C.ar      1 <0>        -0.0939
     20 C16         0.7401    2.0191   13.5657 C.ar      1 <0>        -0.1132
     21 C17        -0.4466    2.4598   14.1210 C.ar      1 <0>        -0.0832
     22 C18        -1.6533    2.0017   13.6263 C.ar      1 <0>        -0.1139
     23 C19        -1.6734    1.1058   12.5737 C.ar      1 <0>        -0.0964
     24 O2          0.0683   -2.7455   -2.3884 O.3       1 <0>        -0.2881
     25 C20         0.7321   -4.0108   -2.4090 C.3       1 <0>         0.0391
     26 C21         0.6445   -4.6015   -3.7926 C.2       1 <0>         0.5186
     27 O3          0.0701   -3.9984   -4.6742 O.2       1 <0>        -0.5157
     28 N4          1.2044   -5.8001   -4.0503 N.am      1 <0>        -0.8496
     29 H1         -0.5526    1.9709   -0.0533 H         1 <0>         0.0764
     30 H2         -2.0965    1.2203   -0.5235 H         1 <0>         0.0775
     31 H3         -1.6447    1.3249    1.1950 H         1 <0>         0.0633
     32 H4         -1.0499   -0.4133   -1.9850 H         1 <0>         0.1398
     33 H5          1.1566   -3.5853   -0.1603 H         1 <0>         0.1322
     34 H6          1.1328   -2.3720    1.9805 H         1 <0>         0.1437
     35 H7          0.0779    0.9576    2.4243 H         1 <0>         0.4069
     36 H8         -0.1691    0.9505    4.7478 H         1 <0>         0.3997
     37 H9         -1.1279   -1.3950    5.9952 H         1 <0>         0.0791
     38 H10         0.6465   -1.3715    6.1334 H         1 <0>         0.0790
     39 H11         0.5351    0.8721    7.1835 H         1 <0>         0.0950
     40 H12        -1.2393    0.8486    7.0453 H         1 <0>         0.0956
     41 H13        -1.3240   -1.1747    8.4762 H         1 <0>         0.1360
     42 H14         0.4504   -1.1513    8.6144 H         1 <0>         0.1365
     43 H15        -1.8749    1.8660   10.3292 H         1 <0>         0.1253
     44 H16        -1.8246    1.7050    8.5573 H         1 <0>         0.1243
     45 H17        -2.6394    0.4652    9.5408 H         1 <0>         0.1241
     46 H18        -1.3943   -0.9494   10.9557 H         1 <0>         0.1367
     47 H19         0.3852   -0.9421   10.9155 H         1 <0>         0.1376
     48 H20         1.6473    0.7756   12.0821 H         1 <0>         0.1313
     49 H21         1.6829    2.3770   13.9523 H         1 <0>         0.1364
     50 H22        -0.4309    3.1618   14.9417 H         1 <0>         0.1363
     51 H23        -2.5805    2.3458   14.0604 H         1 <0>         0.1365
     52 H24        -2.6163    0.7507   12.1848 H         1 <0>         0.1312
     53 H25         1.7790   -3.8763   -2.1370 H         1 <0>         0.0959
     54 H26         0.2549   -4.6831   -1.6960 H         1 <0>         0.0958
     55 H27         1.6638   -6.2825   -3.3451 H         1 <0>         0.4037
     56 H28         1.1480   -6.1804   -4.9408 H         1 <0>         0.4114
     57 H29         0.2358    1.0582    9.5685 H         1 <0>         0.4245
@<TRIPOS>BOND
     1    1    2 1
     2    1   29 1
     3    1   30 1
     4    1   31 1
     5    2    7 ar
     6    2    3 ar
     7    3    4 ar
     8    3   32 1
     9    4    5 ar
    10    4   24 1
    11    5    6 ar
    12    5   33 1
    13    6    7 ar
    14    6   34 1
    15    7    8 1
    16    8    9 am
    17    8   35 1
    18    9   10 2
    19    9   11 am
    20   11   12 1
    21   11   36 1
    22   12   13 1
    23   12   37 1
    24   12   38 1
    25   13   14 1
    26   13   39 1
    27   13   40 1
    28   14   15 1
    29   14   41 1
    30   14   42 1
    31   15   16 1
    32   15   17 1
    33   15   57 1
    34   16   43 1
    35   16   44 1
    36   16   45 1
    37   17   18 1
    38   17   46 1
    39   17   47 1
    40   18   23 ar
    41   18   19 ar
    42   19   20 ar
    43   19   48 1
    44   20   21 ar
    45   20   49 1
    46   21   22 ar
    47   21   50 1
    48   22   23 ar
    49   22   51 1
    50   23   52 1
    51   24   25 1
    52   25   26 1
    53   25   53 1
    54   25   54 1
    55   26   27 2
    56   26   28 am
    57   28   55 1
    58   28   56 1
@<TRIPOS>MOLECULE
ZINC64886583
   55    56     0     0     0
SMALL
USER_CHARGES

@<TRIPOS>ATOM
      1 C1         -0.0184    1.5028    0.0103 C.3       1 <0>        -0.1057
      2 C2          0.0021   -0.0041    0.0020 C.2       1 <0>         0.0015
      3 C3          0.0083   -0.8386   -1.1389 C.2       1 <0>        -0.2062
      4 C4          0.0286   -2.1449   -0.6857 C.2       1 <0>         0.1278
      5 N1          0.0346   -2.1275    0.6564 N.pl3     1 <0>        -0.5295
      6 H1          0.0487   -2.9109    1.2282 H         1 <0>         0.4164
      7 C5          0.0240   -0.8207    1.0934 C.2       1 <0>        -0.0653
      8 C6          0.0315   -0.3828    2.4947 C.2       1 <0>         0.5993
      9 O1          0.0176    0.8043    2.7612 O.2       1 <0>        -0.5003
     10 N2          0.0538   -1.2958    3.4859 N.am      1 <0>        -0.5375
     11 N3          0.0609   -0.8780    4.8231 N.am      1 <0>        -0.5219
     12 C7          0.0832   -1.7909    5.8143 C.2       1 <0>         0.7158
     13 O2          0.0894   -1.4283    6.9748 O.2       1 <0>        -0.5573
     14 N4          0.0987   -3.1059    5.5191 N.am      1 <0>        -0.7490
     15 C8          0.1229   -4.0982    6.5965 C.3       1 <0>         0.1383
     16 C9          0.1366   -5.5047    5.9943 C.3       1 <0>        -0.1556
     17 C10         0.1619   -6.5411    7.1195 C.3       1 <0>         0.0954
     18 N5          0.1751   -7.8877    6.5428 N.pl3     1 <0>        -0.4090
     19 C11        -0.9193   -8.6473    6.2282 C.2       1 <0>         0.0254
     20 C12        -0.4567   -9.8080    5.7259 C.2       1 <0>         0.0050
     21 N6          0.8836   -9.7585    5.7336 N.pl3     1 <0>        -0.4758
     22 C13         1.2691   -8.6092    6.2168 C.cat     1 <0>         0.2889
     23 C14         0.0413   -3.3784   -1.5515 C.3       1 <0>        -0.1018
     24 C15        -0.0043   -0.3998   -2.5444 C.2       1 <0>         0.5441
     25 O3          1.0428   -0.2041   -3.1294 O.2       1 <0>        -0.4902
     26 O4         -1.1771   -0.2152   -3.1822 O.3       1 <0>        -0.3393
     27 C16        -1.1146    0.2111   -4.5447 C.3       1 <0>         0.0758
     28 C17        -1.0751   -1.0136   -5.4609 C.3       1 <0>        -0.1721
     29 C18        -2.3488    1.0538   -4.8725 C.3       1 <0>        -0.1510
     30 H2          1.0042    1.8801    0.0026 H         1 <0>         0.0816
     31 H3         -0.5455    1.8639   -0.8728 H         1 <0>         0.0694
     32 H4         -0.5286    1.8543    0.9071 H         1 <0>         0.0924
     33 H5          0.0649   -2.2422    3.2735 H         1 <0>         0.4088
     34 H6          0.0498    0.0684    5.0356 H         1 <0>         0.4508
     35 H7          0.0937   -3.3952    4.5933 H         1 <0>         0.3898
     36 H8          1.0169   -3.9541    7.2032 H         1 <0>         0.0823
     37 H9         -0.7628   -3.9788    7.2205 H         1 <0>         0.0825
     38 H10        -0.7574   -5.6488    5.3875 H         1 <0>         0.0891
     39 H11         1.0224   -5.6241    5.3703 H         1 <0>         0.0869
     40 H12         1.0559   -6.3969    7.7262 H         1 <0>         0.1286
     41 H13        -0.7238   -6.4217    7.7434 H         1 <0>         0.1313
     42 H14        -1.9548   -8.3693    6.3582 H         1 <0>         0.2237
     43 H15        -1.0593  -10.6339    5.3779 H         1 <0>         0.2244
     44 H16         2.2934   -8.2891    6.3384 H         1 <0>         0.2604
     45 H17         1.0719   -3.6616   -1.7654 H         1 <0>         0.0904
     46 H18        -0.4588   -4.1940   -1.0292 H         1 <0>         0.0787
     47 H19        -0.4802   -3.1717   -2.4861 H         1 <0>         0.0916
     48 H20        -0.2157    0.8084   -4.6976 H         1 <0>         0.0857
     49 H21        -1.0274   -0.6884   -6.5002 H         1 <0>         0.0776
     50 H22        -0.1959   -1.6139   -5.2274 H         1 <0>         0.0601
     51 H23        -1.9740   -1.6108   -5.3080 H         1 <0>         0.0665
     52 H24        -2.3769    1.9263   -4.2197 H         1 <0>         0.0659
     53 H25        -2.3011    1.3790   -5.9118 H         1 <0>         0.0807
     54 H26        -3.2476    0.4565   -4.7196 H         1 <0>         0.0682
     55 H27         1.4734  -10.4642    5.4250 H         1 <0>         0.4662
@<TRIPOS>BOND
     1    1    2 1
     2    1   30 1
     3    1   31 1
     4    1   32 1
     5    2    7 2
     6    2    3 1
     7    3    4 2
     8    3   24 1
     9    4    5 1
    10    4   23 1
    11    5    6 1
    12    5    7 1
    13    7    8 1
    14    8    9 2
    15    8   10 am
    16   10   11 1
    17   10   33 1
    18   11   12 am
    19   11   34 1
    20   12   13 2
    21   12   14 am
    22   14   15 1
    23   14   35 1
    24   15   16 1
    25   15   36 1
    26   15   37 1
    27   16   17 1
    28   16   38 1
    29   16   39 1
    30   17   18 1
    31   17   40 1
    32   17   41 1
    33   18   22 1
    34   18   19 1
    35   19   20 2
    36   19   42 1
    37   20   21 1
    38   20   43 1
    39   21   22 2
    40   21   55 1
    41   22   44 1
    42   23   45 1
    43   23   46 1
    44   23   47 1
    45   24   25 2
    46   24   26 1
    47   26   27 1
    48   27   28 1
    49   27   29 1
    50   27   48 1
    51   28   49 1
    52   28   50 1
    53   28   51 1
    54   29   52 1
    55   29   53 1
    56   29   54 1
@<TRIPOS>MOLECULE
ZINC15065940
   56    57     0     0     0
SMALL
USER_CHARGES
(6R)-6-[[3-(3,4-dimethylphenyl)-1H-pyrazol-4-yl]methylamino]-2-methyl-heptan-2-ol
@<TRIPOS>ATOM
      1 C1          4.5029   -4.2513   -4.9691 C.3       1 <0>        -0.1289
      2 C2          4.2862   -3.9419   -3.5102 C.ar      1 <0>        -0.0638
      3 C3          3.0133   -4.0111   -2.9727 C.ar      1 <0>        -0.1080
      4 C4          2.8084   -3.7236   -1.6386 C.ar      1 <0>        -0.1201
      5 C5          3.8882   -3.3744   -0.8300 C.ar      1 <0>        -0.0321
      6 C6          5.1686   -3.3119   -1.3751 C.ar      1 <0>        -0.0780
      7 C7          5.3614   -3.5959   -2.7122 C.ar      1 <0>        -0.0674
      8 C8          6.7459   -3.5282   -3.3035 C.3       1 <0>        -0.1284
      9 C9          3.6749   -3.0706    0.6071 C.2       1 <0>         0.1402
     10 C10         2.6216   -2.3056    1.1448 C.2       1 <0>        -0.3058
     11 C11         2.7809   -2.2666    2.4857 C.2       1 <0>         0.1171
     12 N1          3.8932   -2.9675    2.7939 N.pl3     1 <0>        -0.4555
     13 H1          4.2626   -3.1079    3.7125 H         1 <0>         0.4622
     14 N2          4.4397   -3.4638    1.6035 N.2       1 <0>        -0.2554
     15 C12         1.5119   -1.6505    0.3636 C.3       1 <0>         0.0861
     16 C13        -0.4843   -2.7668    1.1584 C.3       1 <0>         0.0293
     17 H2         -0.2560   -2.0230    1.9218 H         1 <0>         0.1371
     18 C14        -0.3895   -4.1675    1.7665 C.3       1 <0>        -0.1833
     19 C15        -1.9010   -2.5356    0.6287 C.3       1 <0>        -0.1482
     20 C16        -2.0361   -1.0894    0.1480 C.3       1 <0>        -0.1322
     21 C17        -3.4719   -0.8386   -0.3172 C.3       1 <0>        -0.1465
     22 C18        -3.6411    0.6392   -0.6757 C.3       1 <0>         0.1252
     23 C19        -2.6893    0.9989   -1.8183 C.3       1 <0>        -0.1433
     24 C20        -5.0843    0.8956   -1.1142 C.3       1 <0>        -0.1842
     25 O1         -3.3400    1.4439    0.4662 O.3       1 <0>        -0.5598
     26 H3          4.7018   -5.3163   -5.0890 H         1 <0>         0.0800
     27 H4          3.6102   -3.9826   -5.5340 H         1 <0>         0.0718
     28 H5          5.3533   -3.6789   -5.3395 H         1 <0>         0.0782
     29 H6          2.1778   -4.2865   -3.5992 H         1 <0>         0.1332
     30 H7          1.8137   -3.7735   -1.2210 H         1 <0>         0.0910
     31 H8          6.0089   -3.0414   -0.7529 H         1 <0>         0.1323
     32 H9          7.2269   -4.5022   -3.2145 H         1 <0>         0.0803
     33 H10         6.6785   -3.2510   -4.3555 H         1 <0>         0.0785
     34 H11         7.3335   -2.7824   -2.7682 H         1 <0>         0.0721
     35 H12         2.1353   -1.7593    3.1873 H         1 <0>         0.1898
     36 H13         1.0764   -0.8459    0.9560 H         1 <0>         0.1384
     37 H14         1.9125   -1.2426   -0.5644 H         1 <0>         0.1369
     38 H15        -1.1028   -4.2570    2.5858 H         1 <0>         0.1051
     39 H16        -0.6178   -4.9113    1.0031 H         1 <0>         0.0807
     40 H17         0.6198   -4.3322    2.1439 H         1 <0>         0.0789
     41 H18        -2.0934   -3.2142   -0.2023 H         1 <0>         0.0879
     42 H19        -2.6216   -2.7226    1.4249 H         1 <0>         0.1108
     43 H20        -1.7954   -0.4106    0.9662 H         1 <0>         0.0856
     44 H21        -1.3501   -0.9166   -0.6812 H         1 <0>         0.0611
     45 H22        -3.6822   -1.4515   -1.1937 H         1 <0>         0.0773
     46 H23        -4.1640   -1.0998    0.4834 H         1 <0>         0.0730
     47 H24        -2.8462    0.3136   -2.6513 H         1 <0>         0.0706
     48 H25        -2.8847    2.0200   -2.1461 H         1 <0>         0.0670
     49 H26        -1.6590    0.9195   -1.4716 H         1 <0>         0.0600
     50 H27        -5.7623    0.6393   -0.3001 H         1 <0>         0.0605
     51 H28        -5.2048    1.9484   -1.3696 H         1 <0>         0.0688
     52 H29        -5.3139    0.2818   -1.9852 H         1 <0>         0.0678
     53 H30        -3.9058    1.2691    1.2307 H         1 <0>         0.3781
     54 N3          0.4765   -2.6518    0.0451 N.4       1 <0>        -0.5265
     55 H31         0.9234   -3.5628   -0.1121 H         1 <0>         0.4262
     56 H32        -0.0227   -2.3643   -0.8048 H         1 <0>         0.4281
@<TRIPOS>BOND
     1    1    2 1
     2    1   26 1
     3    1   27 1
     4    1   28 1
     5    2    7 ar
     6    2    3 ar
     7    3    4 ar
     8    3   29 1
     9    4    5 ar
    10    4   30 1
    11    5    6 ar
    12    5    9 1
    13    6    7 ar
    14    6   31 1
    15    7    8 1
    16    8   32 1
    17    8   33 1
    18    8   34 1
    19    9   14 2
    20    9   10 1
    21   10   11 2
    22   10   15 1
    23   11   12 1
    24   11   35 1
    25   12   13 1
    26   12   14 1
    27   15   36 1
    28   15   37 1
    29   15   54 1
    30   16   17 1
    31   16   18 1
    32   16   19 1
    33   16   54 1
    34   18   38 1
    35   18   39 1
    36   18   40 1
    37   19   20 1
    38   19   41 1
    39   19   42 1
    40   20   21 1
    41   20   43 1
    42   20   44 1
    43   21   22 1
    44   21   45 1
    45   21   46 1
    46   22   23 1
    47   22   24 1
    48   22   25 1
    49   23   47 1
    50   23   48 1
    51   23   49 1
    52   24   50 1
    53   24   51 1
    54   24   52 1
    55   25   53 1
    56   54   55 1
    57   54   56 1
@<TRIPOS>MOLECULE
ZINC43093354
   48    48     0     0     0
SMALL
USER_CHARGES

@<TRIPOS>ATOM
      1 C1         -0.9721    0.3869    0.4909 C.3       1 <0>        -0.1715
      2 C2         -0.5768   -1.0122    0.9674 C.3       1 <0>        -0.1624
      3 C3          0.4708   -0.8962    2.0765 C.3       1 <0>         0.0866
      4 C4          0.8957   -2.2959    2.5251 C.3       1 <0>        -0.1095
      5 C5          1.9583   -2.1799    3.6198 C.3       1 <0>        -0.1433
      6 N1          1.6417   -0.1679    1.5698 N.3       1 <0>        -0.4943
      7 C6          1.9106   -0.5138    0.1677 C.3       1 <0>         0.0188
      8 C7          3.4203   -0.4998   -0.0805 C.3       1 <0>         0.0673
      9 O1          4.0448   -1.5013    0.7251 O.3       1 <0>        -0.5527
     10 C8          1.4698    1.2821    1.7307 C.3       1 <0>         0.0731
     11 H1          0.5553    1.5976    1.2283 H         1 <0>         0.1095
     12 C9          1.3787    1.6176    3.1970 C.ar      1 <0>        -0.1159
     13 C10         2.1936    0.9695    4.1064 C.ar      1 <0>        -0.0800
     14 C11         2.1105    1.2774    5.4513 C.ar      1 <0>        -0.0970
     15 C12         1.2124    2.2337    5.8877 C.ar      1 <0>        -0.0911
     16 C13         0.3974    2.8822    4.9794 C.ar      1 <0>        -0.0821
     17 C14         0.4839    2.5780    3.6325 C.ar      1 <0>        -0.1128
     18 Br1        -0.6261    3.4700    2.3883 Br        1 <0>        -0.0359
     19 C15         2.6668    2.0091    1.1146 C.3       1 <0>         0.0203
     20 H2          3.5734    1.4301    1.2907 H         1 <0>         0.1642
     21 C16         2.4474    2.1675   -0.3913 C.3       1 <0>        -0.2161
     22 N2          2.8050    3.3351    1.7315 N.4       1 <0>        -0.6358
     23 H3         -0.1115    0.8697    0.0279 H         1 <0>         0.0528
     24 H4         -1.7797    0.3082   -0.2369 H         1 <0>         0.0655
     25 H5         -1.3068    0.9796    1.3423 H         1 <0>         0.0626
     26 H6         -1.4571   -1.5274    1.3517 H         1 <0>         0.0778
     27 H7         -0.1611   -1.5764    0.1326 H         1 <0>         0.0754
     28 H8          0.0457   -0.3568    2.9229 H         1 <0>         0.0842
     29 H9          0.0297   -2.8311    2.9145 H         1 <0>         0.0656
     30 H10         1.3075   -2.8404    1.6753 H         1 <0>         0.0675
     31 H11         2.2639   -3.1771    3.9366 H         1 <0>         0.0495
     32 H12         2.8227   -1.6411    3.2316 H         1 <0>         0.0727
     33 H13         1.5453   -1.6389    4.4712 H         1 <0>         0.0434
     34 H14         1.5170   -1.5081   -0.0432 H         1 <0>         0.1009
     35 H15         1.4284    0.2139   -0.4850 H         1 <0>         0.0770
     36 H16         3.6174   -0.7049   -1.1327 H         1 <0>         0.0554
     37 H17         3.8223    0.4792    0.1804 H         1 <0>         0.0438
     38 H18         5.0047   -1.5495    0.6188 H         1 <0>         0.3804
     39 H19         2.8950    0.2221    3.7659 H         1 <0>         0.1564
     40 H20         2.7471    0.7706    6.1614 H         1 <0>         0.1412
     41 H21         1.1476    2.4738    6.9387 H         1 <0>         0.1428
     42 H22        -0.3041    3.6291    5.3204 H         1 <0>         0.1433
     43 H23         1.4801    2.6369   -0.5701 H         1 <0>         0.0867
     44 H24         3.2370    2.7916   -0.8098 H         1 <0>         0.0921
     45 H25         2.4689    1.1869   -0.8667 H         1 <0>         0.1274
     46 H26         2.9497    3.2306    2.7246 H         1 <0>         0.4340
     47 H27         3.5944    3.8144    1.3252 H         1 <0>         0.4372
     48 H28         1.9657    3.8710    1.5684 H         1 <0>         0.4249
@<TRIPOS>BOND
     1    1    2 1
     2    1   23 1
     3    1   24 1
     4    1   25 1
     5    2    3 1
     6    2   26 1
     7    2   27 1
     8    3    4 1
     9    3    6 1
    10    3   28 1
    11    4    5 1
    12    4   29 1
    13    4   30 1
    14    5   31 1
    15    5   32 1
    16    5   33 1
    17    6    7 1
    18    6   10 1
    19    7    8 1
    20    7   34 1
    21    7   35 1
    22    8    9 1
    23    8   36 1
    24    8   37 1
    25    9   38 1
    26   10   11 1
    27   10   12 1
    28   10   19 1
    29   12   17 ar
    30   12   13 ar
    31   13   14 ar
    32   13   39 1
    33   14   15 ar
    34   14   40 1
    35   15   16 ar
    36   15   41 1
    37   16   17 ar
    38   16   42 1
    39   17   18 1
    40   19   20 1
    41   19   21 1
    42   19   22 1
    43   21   43 1
    44   21   44 1
    45   21   45 1
    46   22   46 1
    47   22   47 1
    48   22   48 1
@<TRIPOS>MOLECULE
ZINC45516395
   48    49     0     0     0
SMALL
USER_CHARGES

@<TRIPOS>ATOM
      1 C1         -0.0184    1.5028    0.0103 C.3       1 <0>        -0.1195
      2 C2          0.0021   -0.0041    0.0020 C.ar      1 <0>        -0.0434
      3 C3          0.0057   -0.6883   -1.1997 C.ar      1 <0>        -0.1546
      4 C4          0.0244   -2.0706   -1.2107 C.ar      1 <0>        -0.0754
      5 C5          0.0391   -2.7719   -0.0203 C.ar      1 <0>        -0.2159
      6 C6          0.0355   -2.0879    1.1864 C.ar      1 <0>         0.1282
      7 C7          0.0229   -0.7004    1.1947 C.ar      1 <0>        -0.1529
      8 O1          0.0500   -2.7755    2.3585 O.3       1 <0>        -0.3164
      9 C8          0.0686   -4.2018    2.2738 C.3       1 <0>         0.0585
     10 C9          0.0829   -4.7963    3.6835 C.3       1 <0>        -0.1181
     11 C10         0.1027   -6.3235    3.5928 C.3       1 <0>        -0.1197
     12 C11         0.1171   -6.9180    5.0025 C.3       1 <0>        -0.1344
     13 C12         0.1369   -8.4452    4.9118 C.3       1 <0>         0.0458
     14 C13        -1.1094   -8.9281    4.1673 C.3       1 <0>        -0.1662
     15 C14         1.3700   -8.8882    4.1673 C.2       1 <0>         0.5127
     16 O2          1.3131   -9.1071    2.9757 O.2       1 <0>        -0.4750
     17 N1          2.5361   -9.0410    4.8255 N.am      1 <0>        -0.8483
     18 N2          0.1507   -9.0160    6.2653 N.4       1 <0>        -0.4744
     19 C15         0.1698  -10.4823    6.1782 C.3       1 <0>        -0.0966
     20 C16        -1.0335  -11.2393    6.7437 C.3       1 <0>        -0.1468
     21 C17         0.3044  -11.2659    7.4854 C.3       1 <0>        -0.1476
     22 H1          1.0042    1.8801    0.0026 H         1 <0>         0.0763
     23 H2         -0.5455    1.8639   -0.8728 H         1 <0>         0.0721
     24 H3         -0.5286    1.8543    0.9071 H         1 <0>         0.0700
     25 H4         -0.0065   -0.1419   -2.1312 H         1 <0>         0.1267
     26 H5          0.0272   -2.6027   -2.1505 H         1 <0>         0.1269
     27 H6          0.0530   -3.8518   -0.0294 H         1 <0>         0.1244
     28 H7          0.0248   -0.1655    2.1329 H         1 <0>         0.1304
     29 H8         -0.8194   -4.5459    1.7434 H         1 <0>         0.0645
     30 H9          0.9604   -4.5222    1.7353 H         1 <0>         0.0634
     31 H10         0.9708   -4.4523    4.2139 H         1 <0>         0.0787
     32 H11        -0.8090   -4.4759    4.2220 H         1 <0>         0.0812
     33 H12        -0.7852   -6.6676    3.0624 H         1 <0>         0.0867
     34 H13         0.9946   -6.6439    3.0543 H         1 <0>         0.0804
     35 H14         1.0050   -6.5739    5.5329 H         1 <0>         0.0954
     36 H15        -0.7748   -6.5976    5.5410 H         1 <0>         0.1078
     37 H16        -1.1196   -8.5046    3.1630 H         1 <0>         0.1184
     38 H17        -1.0952  -10.0161    4.1026 H         1 <0>         0.0891
     39 H18        -2.0013   -8.6077    4.7058 H         1 <0>         0.0935
     40 H19         2.5817   -8.8659    5.7785 H         1 <0>         0.3960
     41 H20         3.3298   -9.3262    4.3463 H         1 <0>         0.4263
     42 H21         0.9726   -8.6975    6.7563 H         1 <0>         0.4230
     43 H22         0.6530  -10.8943    5.2923 H         1 <0>         0.1739
     44 H23        -1.8394  -10.6493    7.1804 H         1 <0>         0.1249
     45 H24        -1.3423  -12.1496    6.2298 H         1 <0>         0.1359
     46 H25         0.8759  -12.1937    7.4593 H         1 <0>         0.1363
     47 H26         0.3788  -10.6935    8.4100 H         1 <0>         0.1242
     48 H27        -0.6749   -8.7194    6.7638 H         1 <0>         0.4337
@<TRIPOS>BOND
     1    1    2 1
     2    1   22 1
     3    1   23 1
     4    1   24 1
     5    2    7 ar
     6    2    3 ar
     7    3    4 ar
     8    3   25 1
     9    4    5 ar
    10    4   26 1
    11    5    6 ar
    12    5   27 1
    13    6    7 ar
    14    6    8 1
    15    7   28 1
    16    8    9 1
    17    9   10 1
    18    9   29 1
    19    9   30 1
    20   10   11 1
    21   10   31 1
    22   10   32 1
    23   11   12 1
    24   11   33 1
    25   11   34 1
    26   12   13 1
    27   12   35 1
    28   12   36 1
    29   13   14 1
    30   13   15 1
    31   13   18 1
    32   14   37 1
    33   14   38 1
    34   14   39 1
    35   15   16 2
    36   15   17 am
    37   17   40 1
    38   17   41 1
    39   18   19 1
    40   18   42 1
    41   18   48 1
    42   19   21 1
    43   19   20 1
    44   19   43 1
    45   20   21 1
    46   20   44 1
    47   20   45 1
    48   21   46 1
    49   21   47 1
@<TRIPOS>MOLECULE
ZINC50403250
   44    44     0     0     0
SMALL
USER_CHARGES

@<TRIPOS>ATOM
      1 C1          0.0888    1.1122    0.7271 C.3       1 <0>        -0.1562
      2 C2          0.1690   -0.3839    0.4170 C.3       1 <0>        -0.1312
      3 C3          0.6645   -0.5817   -1.0169 C.3       1 <0>        -0.1365
      4 C4          0.7447   -2.0778   -1.3270 C.3       1 <0>         0.1508
      5 H1          1.3671   -2.5708   -0.5802 H         1 <0>         0.0867
      6 C5          1.3571   -2.2790   -2.7146 C.3       1 <0>        -0.1351
      7 C6          1.5249   -3.7754   -2.9859 C.3       1 <0>        -0.1530
      8 N1         -0.6015   -2.6552   -1.2990 N.pl3     1 <0>        -1.1061
      9 S1         -0.9232   -3.9590   -0.3300 S.o2      1 <0>         2.6083
     10 O1         -2.2891   -4.2646   -0.5751 O.2       1 <0>        -0.9503
     11 O2          0.0962   -4.8999   -0.6380 O.2       1 <0>        -0.9382
     12 C7         -0.7148   -3.3439    1.3637 C.3       1 <0>        -0.6107
     13 C8         -0.9861   -4.4592    2.3402 C.ar      1 <0>        -0.0474
     14 C9         -2.2680   -4.6663    2.8141 C.ar      1 <0>        -0.1038
     15 C10        -2.5169   -5.6893    3.7098 C.ar      1 <0>        -0.0866
     16 C11        -1.4840   -6.5056    4.1312 C.ar      1 <0>        -0.1677
     17 C12        -0.2022   -6.2991    3.6565 C.ar      1 <0>        -0.0866
     18 C13         0.0459   -5.2787    2.7576 C.ar      1 <0>        -0.1029
     19 C14        -1.7551   -7.6203    5.1084 C.3       1 <0>         0.0477
     20 N2         -2.0950   -8.8451    4.3721 N.4       1 <0>        -0.6379
     21 H2          1.0772    1.5591    0.6193 H         1 <0>         0.0585
     22 H3         -0.6036    1.5903    0.0342 H         1 <0>         0.0578
     23 H4         -0.2642    1.2532    1.7486 H         1 <0>         0.0553
     24 H5          0.8615   -0.8619    1.1099 H         1 <0>         0.0609
     25 H6         -0.8193   -0.8308    0.5248 H         1 <0>         0.0582
     26 H7         -0.0279   -0.1037   -1.7098 H         1 <0>         0.0765
     27 H8          1.6528   -0.1349   -1.1248 H         1 <0>         0.0827
     28 H9          0.7002   -1.8445   -3.4681 H         1 <0>         0.0715
     29 H10         2.3308   -1.7908   -2.7563 H         1 <0>         0.0782
     30 H11         2.0986   -4.2291   -2.1777 H         1 <0>         0.0617
     31 H12         0.5437   -4.2464   -3.0438 H         1 <0>         0.0532
     32 H13         2.0520   -3.9167   -3.9295 H         1 <0>         0.0563
     33 H14        -1.3043   -2.2737   -1.8480 H         1 <0>         0.4225
     34 H15         0.3057   -2.9847    1.4968 H         1 <0>         0.1489
     35 H16        -1.4137   -2.5267    1.5421 H         1 <0>         0.1513
     36 H17        -3.0751   -4.0285    2.4849 H         1 <0>         0.1442
     37 H18        -3.5183   -5.8506    4.0807 H         1 <0>         0.1401
     38 H19         0.6049   -6.9366    3.9860 H         1 <0>         0.1400
     39 H20         1.0466   -5.1197    2.3838 H         1 <0>         0.1444
     40 H21        -0.8667   -7.7958    5.7151 H         1 <0>         0.1421
     41 H22        -2.5875   -7.3422    5.7550 H         1 <0>         0.1420
     42 H23        -2.9174   -8.6827    3.8105 H         1 <0>         0.4357
     43 H24        -1.3245   -9.1025    3.7736 H         1 <0>         0.4357
     44 H25        -2.2766   -9.5915    5.0264 H         1 <0>         0.4389
@<TRIPOS>BOND
     1    1    2 1
     2    1   21 1
     3    1   22 1
     4    1   23 1
     5    2    3 1
     6    2   24 1
     7    2   25 1
     8    3    4 1
     9    3   26 1
    10    3   27 1
    11    4    5 1
    12    4    6 1
    13    4    8 1
    14    6    7 1
    15    6   28 1
    16    6   29 1
    17    7   30 1
    18    7   31 1
    19    7   32 1
    20    8    9 1
    21    8   33 1
    22    9   10 2
    23    9   11 2
    24    9   12 1
    25   12   13 1
    26   12   34 1
    27   12   35 1
    28   13   18 ar
    29   13   14 ar
    30   14   15 ar
    31   14   36 1
    32   15   16 ar
    33   15   37 1
    34   16   17 ar
    35   16   19 1
    36   17   18 ar
    37   17   38 1
    38   18   39 1
    39   19   20 1
    40   19   40 1
    41   19   41 1
    42   20   42 1
    43   20   43 1
    44   20   44 1
@<TRIPOS>MOLECULE
ZINC32075702
   50    50     0     0     0
SMALL
USER_CHARGES

@<TRIPOS>ATOM
      1 C1         -2.2441    0.7763    1.7099 C.3       1 <0>        -0.1579
      2 C2         -1.6647   -0.5919    1.3450 C.3       1 <0>        -0.0985
      3 C3         -1.5566   -1.4526    2.6053 C.3       1 <0>        -0.1403
      4 C4         -2.5828   -1.2814    0.3338 C.3       1 <0>         0.0264
      5 N1         -1.9991   -2.5714   -0.0575 N.3       1 <0>        -0.5386
      6 C5         -3.0426   -3.5140   -0.4826 C.3       1 <0>         0.0479
      7 C6         -2.4784   -4.9362   -0.4763 C.3       1 <0>        -0.0942
      8 C7         -2.1321   -5.3411    0.9580 C.3       1 <0>        -0.1450
      9 C8         -3.5226   -5.9016   -1.0407 C.3       1 <0>        -0.1554
     10 C9         -0.9889   -2.3949   -1.1092 C.3       1 <0>         0.0927
     11 H1         -0.9512   -3.2896   -1.7307 H         1 <0>         0.1205
     12 C10         0.3802   -2.1616   -0.4674 C.3       1 <0>        -0.0060
     13 N2          0.6737   -3.2535    0.4705 N.4       1 <0>        -0.6343
     14 C11        -1.3533   -1.2065   -1.9613 C.ar      1 <0>        -0.1406
     15 C12        -1.0959    0.0738   -1.5065 C.ar      1 <0>        -0.0494
     16 C13        -1.4289    1.1647   -2.2856 C.ar      1 <0>        -0.1452
     17 C14        -2.0217    0.9751   -3.5257 C.ar      1 <0>         0.2054
     18 C15        -2.2785   -0.3102   -3.9798 C.ar      1 <0>        -0.0784
     19 C16        -1.9391   -1.3983   -3.1988 C.ar      1 <0>        -0.0224
     20 N3         -2.9112   -0.5161   -5.3018 N.pl3     1 <0>         0.0295
     21 O1         -3.1347   -1.6365   -5.6971 O.2       1 <0>        -0.1594
     22 O2         -3.2045    0.4362   -5.9864 O.3       1 <0>        -0.1220
     23 O3         -2.3507    2.0468   -4.2938 O.3       1 <0>        -0.4688
     24 H2         -1.6380    1.2301    2.4940 H         1 <0>         0.0673
     25 H3         -2.2401    1.4190    0.8296 H         1 <0>         0.0584
     26 H4         -3.2670    0.6543    2.0662 H         1 <0>         0.0653
     27 H5         -0.6747   -0.4623    0.9076 H         1 <0>         0.0630
     28 H6         -0.9734   -0.9226    3.3584 H         1 <0>         0.0619
     29 H7         -2.5547   -1.6542    2.9943 H         1 <0>         0.0677
     30 H8         -1.0648   -2.3942    2.3612 H         1 <0>         0.0407
     31 H9         -3.5610   -1.4471    0.7852 H         1 <0>         0.0905
     32 H10        -2.6918   -0.6496   -0.5477 H         1 <0>         0.0710
     33 H11        -3.8871   -3.4551    0.2039 H         1 <0>         0.0932
     34 H12        -3.3741   -3.2592   -1.4892 H         1 <0>         0.0532
     35 H13        -1.5793   -4.9732   -1.0914 H         1 <0>         0.0641
     36 H14        -1.6459   -6.3166    0.9528 H         1 <0>         0.0607
     37 H15        -1.4587   -4.6018    1.3917 H         1 <0>         0.0422
     38 H16        -3.0450   -5.3933    1.5512 H         1 <0>         0.0668
     39 H17        -3.7693   -5.6132   -2.0625 H         1 <0>         0.0602
     40 H18        -3.1207   -6.9148   -1.0362 H         1 <0>         0.0653
     41 H19        -4.4217   -5.8646   -0.4256 H         1 <0>         0.0625
     42 H20         1.1452   -2.1336   -1.2433 H         1 <0>         0.1447
     43 H21         0.3728   -1.2132    0.0699 H         1 <0>         0.1384
     44 H22         0.7631   -4.1197   -0.0391 H         1 <0>         0.4336
     45 H23         1.5368   -3.0577    0.9551 H         1 <0>         0.4376
     46 H24        -0.6344    0.2209   -0.5412 H         1 <0>         0.1526
     47 H25        -1.2283    2.1645   -1.9297 H         1 <0>         0.1619
     48 H26        -2.1353   -2.3993   -3.5535 H         1 <0>         0.1587
     49 H27        -1.6477    2.3312   -4.8938 H         1 <0>         0.4159
     50 H28        -0.0772   -3.3329    1.1398 H         1 <0>         0.4365
@<TRIPOS>BOND
     1    1    2 1
     2    1   24 1
     3    1   25 1
     4    1   26 1
     5    2    3 1
     6    2    4 1
     7    2   27 1
     8    3   28 1
     9    3   29 1
    10    3   30 1
    11    4    5 1
    12    4   31 1
    13    4   32 1
    14    5    6 1
    15    5   10 1
    16    6    7 1
    17    6   33 1
    18    6   34 1
    19    7    8 1
    20    7    9 1
    21    7   35 1
    22    8   36 1
    23    8   37 1
    24    8   38 1
    25    9   39 1
    26    9   40 1
    27    9   41 1
    28   10   11 1
    29   10   12 1
    30   10   14 1
    31   12   13 1
    32   12   42 1
    33   12   43 1
    34   13   44 1
    35   13   45 1
    36   13   50 1
    37   14   19 ar
    38   14   15 ar
    39   15   16 ar
    40   15   46 1
    41   16   17 ar
    42   16   47 1
    43   17   18 ar
    44   17   23 1
    45   18   19 ar
    46   18   20 1
    47   19   48 1
    48   20   21 2
    49   20   22 1
    50   23   49 1
@<TRIPOS>MOLECULE
ZINC01749408
   47    48     0     0     0
SMALL
USER_CHARGES
4-[4-(4-amino-3-methyl-phenoxy)butoxy]benzamidine
@<TRIPOS>ATOM
      1 C1          1.9284   14.1333    0.0574 C.3       1 <0>        -0.1086
      2 C2          0.9345   13.0004    0.0608 C.ar      1 <0>        -0.1250
      3 C3          1.3779   11.6923    0.0504 C.ar      1 <0>        -0.1019
      4 C4          0.4634   10.6497    0.0535 C.ar      1 <0>         0.0714
      5 C5         -0.8973   10.9195    0.0619 C.ar      1 <0>        -0.1620
      6 C6         -1.3422   12.2268    0.0785 C.ar      1 <0>        -0.1577
      7 C7         -0.4271   13.2714    0.0749 C.ar      1 <0>         0.1869
      8 N1         -0.8772   14.5964    0.0860 N.pl3     1 <0>        -0.8796
      9 O1          0.9008    9.3620    0.0428 O.3       1 <0>        -0.3194
     10 C8         -0.0960    8.3382    0.0468 C.3       1 <0>         0.0623
     11 C9          0.5817    6.9665    0.0334 C.3       1 <0>        -0.1161
     12 C10        -0.4857    5.8703    0.0377 C.3       1 <0>        -0.1188
     13 C11         0.1919    4.4986    0.0243 C.3       1 <0>         0.0528
     14 O2         -0.8050    3.4748    0.0284 O.3       1 <0>        -0.2954
     15 C12        -0.3683    2.1892    0.0176 C.ar      1 <0>         0.2074
     16 C13        -1.2854    1.1458    0.0208 C.ar      1 <0>        -0.1495
     17 C14        -0.8458   -0.1601    0.0095 C.ar      1 <0>        -0.0193
     18 C15         0.5227   -0.4338   -0.0051 C.ar      1 <0>        -0.2060
     19 C16         1.4413    0.6169   -0.0083 C.ar      1 <0>        -0.0093
     20 C17         0.9947    1.9203    0.0031 C.ar      1 <0>        -0.2119
     21 C18         0.9985   -1.8345   -0.0168 C.cat     1 <0>         0.6032
     22 H1          0.3534   -3.7662   -0.0204 H         1 <0>         0.4432
     23 N2          2.3502   -2.1030   -0.0313 N.pl3     1 <0>        -0.7853
     24 H2          2.1588   14.4114   -0.9711 H         1 <0>         0.0702
     25 H3          1.5038   14.9908    0.5793 H         1 <0>         0.0629
     26 H4          2.8416   13.8169    0.5614 H         1 <0>         0.0701
     27 H5          2.4370   11.4814    0.0393 H         1 <0>         0.1297
     28 H6         -1.6088   10.1071    0.0599 H         1 <0>         0.1248
     29 H7         -2.4016   12.4367    0.0891 H         1 <0>         0.1237
     30 H8         -0.2378   15.3258    0.0837 H         1 <0>         0.3984
     31 H9         -1.8286   14.7854    0.0958 H         1 <0>         0.3979
     32 H10        -0.7259    8.4409   -0.8368 H         1 <0>         0.0622
     33 H11        -0.7093    8.4317    0.9430 H         1 <0>         0.0622
     34 H12         1.2116    6.8638    0.9171 H         1 <0>         0.0793
     35 H13         1.1948    6.8730   -0.8628 H         1 <0>         0.0792
     36 H14        -1.1156    5.9730   -0.8459 H         1 <0>         0.0831
     37 H15        -1.0990    5.9639    0.9339 H         1 <0>         0.0831
     38 H16         0.8218    4.3960    0.9080 H         1 <0>         0.0763
     39 H17         0.8052    4.4051   -0.8719 H         1 <0>         0.0763
     40 H18        -2.3443    1.3584    0.0277 H         1 <0>         0.1569
     41 H19        -1.5593   -0.9708    0.0123 H         1 <0>         0.1427
     42 H20         2.5010    0.4087   -0.0192 H         1 <0>         0.1403
     43 H21         1.7048    2.7340    0.0006 H         1 <0>         0.1527
     44 H22         2.9895   -1.3735   -0.0339 H         1 <0>         0.4414
     45 H23         2.6620   -3.0214   -0.0389 H         1 <0>         0.4304
     46 N3          0.0753   -2.7847   -0.0126 N.pl3     1 <0>        -0.7643
     47 H24        -0.9202   -2.5333   -0.0016 H         1 <0>         0.4589
@<TRIPOS>BOND
     1    1    2 1
     2    1   24 1
     3    1   25 1
     4    1   26 1
     5    2    7 ar
     6    2    3 ar
     7    3    4 ar
     8    3   27 1
     9    4    5 ar
    10    4    9 1
    11    5    6 ar
    12    5   28 1
    13    6    7 ar
    14    6   29 1
    15    7    8 1
    16    8   30 1
    17    8   31 1
    18    9   10 1
    19   10   11 1
    20   10   32 1
    21   10   33 1
    22   11   12 1
    23   11   34 1
    24   11   35 1
    25   12   13 1
    26   12   36 1
    27   12   37 1
    28   13   14 1
    29   13   38 1
    30   13   39 1
    31   14   15 1
    32   15   20 ar
    33   15   16 ar
    34   16   17 ar
    35   16   40 1
    36   17   18 ar
    37   17   41 1
    38   18   19 ar
    39   18   21 1
    40   19   20 ar
    41   19   42 1
    42   20   43 1
    43   21   23 1
    44   21   46 2
    45   22   46 1
    46   23   44 1
    47   23   45 1
    48   46   47 1
@<TRIPOS>MOLECULE
ZINC37722257
   48    48     0     0     0
SMALL
USER_CHARGES

@<TRIPOS>ATOM
      1 C1         -0.0187    1.5258    0.0104 C.3       1 <0>        -0.1517
      2 C2          0.0021   -0.0041    0.0020 C.3       1 <0>        -0.1265
      3 C3          0.7182   -0.4975   -1.2568 C.3       1 <0>         0.0571
      4 O1          0.7376   -1.9263   -1.2646 O.3       1 <0>        -0.3067
      5 C4          1.3413   -2.5294   -2.3223 C.ar      1 <0>         0.1929
      6 C5          1.9085   -1.7607   -3.3292 C.ar      1 <0>        -0.2396
      7 C6          2.5223   -2.3731   -4.4047 C.ar      1 <0>        -0.0553
      8 C7          2.5728   -3.7521   -4.4812 C.ar      1 <0>        -0.2083
      9 C8          2.0073   -4.5249   -3.4772 C.ar      1 <0>         0.1899
     10 C9          1.3961   -3.9126   -2.3937 C.ar      1 <0>        -0.2388
     11 O2          2.0572   -5.8808   -3.5530 O.3       1 <0>        -0.3092
     12 C10         1.4545   -6.6130   -2.4840 C.3       1 <0>         0.0736
     13 C11         1.6089   -8.1131   -2.7426 C.3       1 <0>        -0.1113
     14 H1          2.6625   -8.3495   -2.8916 H         1 <0>         0.1135
     15 C12         0.8177   -8.4989   -3.9940 C.3       1 <0>        -0.1440
     16 C13         1.0837   -8.8836   -1.5588 C.2       1 <0>         0.5243
     17 O3          0.6305   -8.2912   -0.6024 O.2       1 <0>        -0.5381
     18 N1          1.1175  -10.2309   -1.5629 N.am      1 <0>        -0.8479
     19 C14         3.2423   -4.4169   -5.6563 C.3       1 <0>        -0.0816
     20 C15         2.1918   -4.7612   -6.7141 C.3       1 <0>         0.0306
     21 H2          1.4059   -5.3663   -6.2621 H         1 <0>         0.1417
     22 C16         2.8503   -5.5464   -7.8502 C.3       1 <0>        -0.1825
     23 N2          1.6102   -3.5224   -7.2479 N.4       1 <0>        -0.6376
     24 H3          1.0039    1.9031    0.0027 H         1 <0>         0.0593
     25 H4         -0.5459    1.8868   -0.8726 H         1 <0>         0.0582
     26 H5         -0.5289    1.8773    0.9072 H         1 <0>         0.0701
     27 H6          0.5293   -0.3651    0.8851 H         1 <0>         0.0773
     28 H7         -1.0205   -0.3814    0.0098 H         1 <0>         0.0764
     29 H8          0.1910   -0.1364   -2.1398 H         1 <0>         0.0665
     30 H9          1.7408   -0.1202   -1.2645 H         1 <0>         0.0680
     31 H10         1.8697   -0.6829   -3.2720 H         1 <0>         0.1376
     32 H11         2.9631   -1.7733   -5.1872 H         1 <0>         0.1333
     33 H12         0.9592   -4.5124   -1.6090 H         1 <0>         0.1464
     34 H13         1.9438   -6.3539   -1.5451 H         1 <0>         0.0811
     35 H14         0.3956   -6.3619   -2.4233 H         1 <0>         0.0784
     36 H15         1.1976   -7.9416   -4.8503 H         1 <0>         0.0716
     37 H16         0.9277   -9.5676   -4.1783 H         1 <0>         0.0685
     38 H17        -0.2359   -8.2624   -3.8451 H         1 <0>         0.0640
     39 H18         1.4800  -10.7046   -2.3278 H         1 <0>         0.4041
     40 H19         0.7794  -10.7268   -0.8009 H         1 <0>         0.4095
     41 H20         3.9809   -3.7394   -6.0848 H         1 <0>         0.0946
     42 H21         3.7364   -5.3300   -5.3242 H         1 <0>         0.1204
     43 H22         3.2819   -6.4656   -7.4541 H         1 <0>         0.1072
     44 H23         2.1019   -5.7917   -8.6037 H         1 <0>         0.0822
     45 H24         3.6363   -4.9413   -8.3021 H         1 <0>         0.0822
     46 H25         2.3377   -2.9622   -7.6663 H         1 <0>         0.4309
     47 H26         0.9174   -3.7494   -7.9455 H         1 <0>         0.4347
     48 H27         1.1759   -3.0046   -6.4987 H         1 <0>         0.4331
@<TRIPOS>BOND
     1    1    2 1
     2    1   24 1
     3    1   25 1
     4    1   26 1
     5    2    3 1
     6    2   27 1
     7    2   28 1
     8    3    4 1
     9    3   29 1
    10    3   30 1
    11    4    5 1
    12    5   10 ar
    13    5    6 ar
    14    6    7 ar
    15    6   31 1
    16    7    8 ar
    17    7   32 1
    18    8    9 ar
    19    8   19 1
    20    9   10 ar
    21    9   11 1
    22   10   33 1
    23   11   12 1
    24   12   13 1
    25   12   34 1
    26   12   35 1
    27   13   14 1
    28   13   15 1
    29   13   16 1
    30   15   36 1
    31   15   37 1
    32   15   38 1
    33   16   17 2
    34   16   18 am
    35   18   39 1
    36   18   40 1
    37   19   20 1
    38   19   41 1
    39   19   42 1
    40   20   21 1
    41   20   22 1
    42   20   23 1
    43   22   43 1
    44   22   44 1
    45   22   45 1
    46   23   46 1
    47   23   47 1
    48   23   48 1
@<TRIPOS>MOLECULE
ZINC42690859
   46    46     0     0     0
SMALL
USER_CHARGES

@<TRIPOS>ATOM
      1 C1         -0.4368    1.1584   -2.9616 C.3       1 <0>        -0.1732
      2 C2         -0.6295    1.4541   -1.4729 C.3       1 <0>        -0.1189
      3 C3         -0.4259    2.9491   -1.2194 C.3       1 <0>        -0.1520
      4 C4         -2.0450    1.0536   -1.0524 C.3       1 <0>        -0.0156
      5 N1         -2.2015   -0.4012   -1.1831 N.4       1 <0>        -0.3716
      6 C5         -3.5935   -0.7718   -0.8948 C.3       1 <0>        -0.0138
      7 C6         -4.5112   -0.1805   -1.9668 C.3       1 <0>        -0.1455
      8 C7         -5.9410   -0.6776   -1.7449 C.3       1 <0>         0.0656
      9 O1         -6.7981   -0.1254   -2.7461 O.3       1 <0>        -0.3141
     10 C8         -8.1116   -0.4697   -2.6922 C.ar      1 <0>         0.1683
     11 C9         -8.5667   -1.3177   -1.6918 C.ar      1 <0>        -0.2672
     12 C10        -9.9019   -1.6689   -1.6355 C.ar      1 <0>        -0.0312
     13 C11       -10.7884   -1.1774   -2.5743 C.ar      1 <0>        -0.2266
     14 C12       -10.3387   -0.3284   -3.5779 C.ar      1 <0>         0.2566
     15 C13        -8.9985    0.0300   -3.6324 C.ar      1 <0>        -0.2310
     16 N2        -11.2346    0.1686   -4.5270 N.pl3     1 <0>        -0.8703
     17 C14        -1.3080   -1.0771   -0.2330 C.3       1 <0>        -0.0400
     18 C15        -1.3456   -2.5635   -0.4784 C.2       1 <0>         0.5074
     19 O2         -1.9606   -3.0064   -1.4252 O.2       1 <0>        -0.5275
     20 N3         -0.6959   -3.4006    0.3544 N.am      1 <0>        -0.8245
     21 H1          0.5716    1.4437   -3.2612 H         1 <0>         0.0855
     22 H2         -0.5818    0.0932   -3.1422 H         1 <0>         0.0510
     23 H3         -1.1630    1.7275   -3.5421 H         1 <0>         0.0763
     24 H4          0.0966    0.8850   -0.8925 H         1 <0>         0.0916
     25 H5         -1.1521    3.5183   -1.7998 H         1 <0>         0.0700
     26 H6         -0.5632    3.1598   -0.1588 H         1 <0>         0.0685
     27 H7          0.5825    3.2344   -1.5189 H         1 <0>         0.0788
     28 H8         -2.2123    1.3454   -0.0156 H         1 <0>         0.1362
     29 H9         -2.7701    1.5560   -1.6927 H         1 <0>         0.1408
     30 H10        -3.6877   -1.8577   -0.8946 H         1 <0>         0.1435
     31 H11        -3.8783   -0.3821    0.0825 H         1 <0>         0.1343
     32 H12        -4.4907    0.9075   -1.9027 H         1 <0>         0.0985
     33 H13        -4.1667   -0.4929   -2.9526 H         1 <0>         0.0992
     34 H14        -5.9614   -1.7656   -1.8090 H         1 <0>         0.0737
     35 H15        -6.2855   -0.3652   -0.7591 H         1 <0>         0.0726
     36 H16        -7.8761   -1.7038   -0.9567 H         1 <0>         0.1211
     37 H17       -10.2532   -2.3291   -0.8563 H         1 <0>         0.1271
     38 H18       -11.8314   -1.4537   -2.5283 H         1 <0>         0.1252
     39 H19        -8.6470    0.6937   -4.4085 H         1 <0>         0.1285
     40 H20       -12.1716   -0.0790   -4.4859 H         1 <0>         0.4041
     41 H21       -10.9199    0.7614   -5.2274 H         1 <0>         0.4016
     42 H22        -0.2900   -0.7120   -0.3689 H         1 <0>         0.1651
     43 H23        -1.6359   -0.8686    0.7854 H         1 <0>         0.1624
     44 H24        -0.2040   -3.0464    1.1117 H         1 <0>         0.4140
     45 H25        -0.7201   -4.3574    0.1964 H         1 <0>         0.4246
     46 H26        -1.9667   -0.6816   -2.1235 H         1 <0>         0.4305
@<TRIPOS>BOND
     1    1    2 1
     2    1   21 1
     3    1   22 1
     4    1   23 1
     5    2    3 1
     6    2    4 1
     7    2   24 1
     8    3   25 1
     9    3   26 1
    10    3   27 1
    11    4    5 1
    12    4   28 1
    13    4   29 1
    14    5    6 1
    15    5   17 1
    16    5   46 1
    17    6    7 1
    18    6   30 1
    19    6   31 1
    20    7    8 1
    21    7   32 1
    22    7   33 1
    23    8    9 1
    24    8   34 1
    25    8   35 1
    26    9   10 1
    27   10   15 ar
    28   10   11 ar
    29   11   12 ar
    30   11   36 1
    31   12   13 ar
    32   12   37 1
    33   13   14 ar
    34   13   38 1
    35   14   15 ar
    36   14   16 1
    37   15   39 1
    38   16   40 1
    39   16   41 1
    40   17   18 1
    41   17   42 1
    42   17   43 1
    43   18   19 2
    44   18   20 am
    45   20   44 1
    46   20   45 1
@<TRIPOS>MOLECULE
ZINC45515099
   50    50     0     0     0
SMALL
USER_CHARGES

@<TRIPOS>ATOM
      1 C1         -0.0187    1.5258    0.0104 C.3       1 <0>        -0.1592
      2 C2          0.0021   -0.0041    0.0020 C.3       1 <0>        -0.1167
      3 C3          0.7182   -0.4975   -1.2568 C.3       1 <0>        -0.0240
      4 C4         -0.0218    0.0093   -2.4963 C.3       1 <0>        -0.1425
      5 C5          2.1536    0.0321   -1.2676 C.3       1 <0>        -0.1421
      6 C6          0.7386   -2.0043   -1.2651 C.ar      1 <0>        -0.0942
      7 C7          0.1540   -2.7082   -0.2285 C.ar      1 <0>        -0.0808
      8 C8          0.1718   -4.0895   -0.2335 C.ar      1 <0>        -0.1442
      9 C9          0.7766   -4.7704   -1.2800 C.ar      1 <0>         0.1139
     10 C10         1.3621   -4.0619   -2.3192 C.ar      1 <0>        -0.2033
     11 C11         1.3371   -2.6807   -2.3121 C.ar      1 <0>        -0.0752
     12 O1          0.7958   -6.1293   -1.2871 O.3       1 <0>        -0.3185
     13 C12         1.4358   -6.7633   -2.3963 C.3       1 <0>         0.0590
     14 C13         1.3579   -8.2823   -2.2300 C.3       1 <0>        -0.1366
     15 C14         2.0432   -8.9611   -3.4177 C.3       1 <0>        -0.1295
     16 C15         1.9653  -10.4801   -3.2514 C.3       1 <0>         0.0517
     17 C16         0.5033  -10.9262   -3.3185 C.3       1 <0>        -0.1805
     18 C17         2.7451  -11.1469   -4.3551 C.2       1 <0>         0.5084
     19 O2          2.9195  -10.5707   -5.4080 O.2       1 <0>        -0.4716
     20 N1          3.2488  -12.3836   -4.1722 N.am      1 <0>        -0.8478
     21 N2          2.5340  -10.8602   -1.9514 N.4       1 <0>        -0.6354
     22 H1          1.0039    1.9031    0.0027 H         1 <0>         0.0588
     23 H2         -0.5459    1.8868   -0.8726 H         1 <0>         0.0589
     24 H3         -0.5289    1.8773    0.9072 H         1 <0>         0.0557
     25 H4          0.5293   -0.3651    0.8851 H         1 <0>         0.0651
     26 H5         -1.0205   -0.3814    0.0098 H         1 <0>         0.0654
     27 H6         -0.0366    1.0992   -2.4903 H         1 <0>         0.0653
     28 H7          0.4884   -0.3422   -3.3931 H         1 <0>         0.0550
     29 H8         -1.0444   -0.3679   -2.4886 H         1 <0>         0.0565
     30 H9          2.6808   -0.3290   -0.3846 H         1 <0>         0.0561
     31 H10         2.6638   -0.3194   -2.1644 H         1 <0>         0.0549
     32 H11         2.1388    1.1220   -1.2617 H         1 <0>         0.0653
     33 H12        -0.3167   -2.1776    0.5860 H         1 <0>         0.1366
     34 H13        -0.2844   -4.6388    0.5767 H         1 <0>         0.1301
     35 H14         1.8335   -4.5897   -3.1350 H         1 <0>         0.1245
     36 H15         1.7889   -2.1287   -3.1229 H         1 <0>         0.1261
     37 H16         0.9347   -6.4727   -3.3196 H         1 <0>         0.0724
     38 H17         2.4806   -6.4554   -2.4375 H         1 <0>         0.0682
     39 H18         1.8590   -8.5729   -1.3067 H         1 <0>         0.0709
     40 H19         0.3131   -8.5902   -2.1888 H         1 <0>         0.0969
     41 H20         1.5420   -8.6705   -4.3410 H         1 <0>         0.1293
     42 H21         3.0880   -8.6533   -3.4589 H         1 <0>         0.1020
     43 H22         0.0813  -10.6442   -4.2831 H         1 <0>         0.1182
     44 H23         0.4478  -12.0083   -3.2000 H         1 <0>         0.0910
     45 H24        -0.0608  -10.4439   -2.5202 H         1 <0>         0.1039
     46 H25         3.1093  -12.8444   -3.3302 H         1 <0>         0.3965
     47 H26         3.7507  -12.8128   -4.8827 H         1 <0>         0.4284
     48 H27         2.0119  -10.4137   -1.2124 H         1 <0>         0.4434
     49 H28         2.4826  -11.8619   -1.8417 H         1 <0>         0.4325
     50 H29         3.4982  -10.5660   -1.9071 H         1 <0>         0.4410
@<TRIPOS>BOND
     1    1    2 1
     2    1   22 1
     3    1   23 1
     4    1   24 1
     5    2    3 1
     6    2   25 1
     7    2   26 1
     8    3    4 1
     9    3    5 1
    10    3    6 1
    11    4   27 1
    12    4   28 1
    13    4   29 1
    14    5   30 1
    15    5   31 1
    16    5   32 1
    17    6   11 ar
    18    6    7 ar
    19    7    8 ar
    20    7   33 1
    21    8    9 ar
    22    8   34 1
    23    9   10 ar
    24    9   12 1
    25   10   11 ar
    26   10   35 1
    27   11   36 1
    28   12   13 1
    29   13   14 1
    30   13   37 1
    31   13   38 1
    32   14   15 1
    33   14   39 1
    34   14   40 1
    35   15   16 1
    36   15   41 1
    37   15   42 1
    38   16   17 1
    39   16   18 1
    40   16   21 1
    41   17   43 1
    42   17   44 1
    43   17   45 1
    44   18   19 2
    45   18   20 am
    46   20   46 1
    47   20   47 1
    48   21   48 1
    49   21   49 1
    50   21   50 1
@<TRIPOS>MOLECULE
ZINC57663174
   53    53     0     0     0
SMALL
USER_CHARGES

@<TRIPOS>ATOM
      1 C1         -0.3898   -2.4299   -1.1422 C.3       1 <0>        -0.1879
      2 C2         -1.2213   -1.9711    0.0574 C.3       1 <0>        -0.0162
      3 N1         -1.2744   -0.5033    0.0838 N.4       1 <0>        -0.3838
      4 C3         -2.0113   -0.0187   -1.0910 C.3       1 <0>        -0.0133
      5 C4         -1.9428    1.5089   -1.1415 C.3       1 <0>        -0.1772
      6 C5         -2.5918    2.0060   -2.4349 C.3       1 <0>         0.1645
      7 H1         -3.6063    1.6137   -2.5064 H         1 <0>         0.1152
      8 C6         -2.6349    3.5123   -2.4285 C.ar      1 <0>        -0.1206
      9 C7         -1.5392    4.2354   -2.8623 C.ar      1 <0>        -0.1293
     10 C8         -1.5731    5.6178   -2.8592 C.ar      1 <0>        -0.1590
     11 C9         -2.7066    6.2822   -2.4209 C.ar      1 <0>         0.0695
     12 C10        -3.8111    5.5544   -1.9836 C.ar      1 <0>         0.2023
     13 C11        -3.7718    4.1677   -1.9945 C.ar      1 <0>        -0.1612
     14 N2         -4.9591    6.2204   -1.5391 N.pl3     1 <0>        -0.8702
     15 O1         -2.7411    7.6418   -2.4169 O.3       1 <0>        -0.3152
     16 C12        -1.5720    8.3218   -2.8785 C.3       1 <0>         0.0670
     17 C13        -1.7972    9.8332   -2.8011 C.3       1 <0>        -0.0951
     18 C14        -1.9570   10.2507   -1.3378 C.3       1 <0>        -0.1475
     19 C15        -0.5963   10.5596   -3.4104 C.3       1 <0>        -0.1485
     20 O2         -1.8271    1.5560   -3.5550 O.3       1 <0>        -0.5509
     21 C16        -1.9565   -0.0599    1.3069 C.3       1 <0>        -0.0108
     22 C17        -1.1240   -0.4569    2.5276 C.3       1 <0>         0.0451
     23 O3          0.1168    0.2516    2.5088 O.3       1 <0>        -0.5799
     24 H2         -0.2668   -3.5123   -1.1064 H         1 <0>         0.1057
     25 H3         -0.8994   -2.1525   -2.0650 H         1 <0>         0.0832
     26 H4          0.5892   -1.9517   -1.1099 H         1 <0>         0.0797
     27 H5         -2.2322   -2.3698   -0.0275 H         1 <0>         0.1296
     28 H6         -0.7634   -2.3348    0.9772 H         1 <0>         0.1287
     29 H7         -1.5656   -0.4325   -1.9956 H         1 <0>         0.1409
     30 H8         -3.0525   -0.3337   -1.0221 H         1 <0>         0.1306
     31 H9         -2.4739    1.9249   -0.2854 H         1 <0>         0.0984
     32 H10        -0.9007    1.8271   -1.1123 H         1 <0>         0.0920
     33 H11        -0.6543    3.7191   -3.2041 H         1 <0>         0.1185
     34 H12        -0.7153    6.1796   -3.1984 H         1 <0>         0.1310
     35 H13        -4.6280    3.6004   -1.6604 H         1 <0>         0.1275
     36 H14        -4.9863    7.1900   -1.5352 H         1 <0>         0.4071
     37 H15        -5.7274    5.7124   -1.2350 H         1 <0>         0.3998
     38 H16        -0.7221    8.0486   -2.2532 H         1 <0>         0.0619
     39 H17        -1.3700    8.0370   -3.9110 H         1 <0>         0.0626
     40 H18        -2.6992   10.0950   -3.3542 H         1 <0>         0.0821
     41 H19        -2.1174   11.3274   -1.2827 H         1 <0>         0.0600
     42 H20        -2.8125    9.7332   -0.9037 H         1 <0>         0.0597
     43 H21        -1.0550    9.9889   -0.7847 H         1 <0>         0.0540
     44 H22        -0.4825   10.2621   -4.4529 H         1 <0>         0.0590
     45 H23        -0.7567   11.6363   -3.3553 H         1 <0>         0.0681
     46 H24         0.3056   10.2978   -2.8573 H         1 <0>         0.0585
     47 H25        -0.9117    1.8677   -3.5570 H         1 <0>         0.3796
     48 H26        -2.0749    1.0234    1.2845 H         1 <0>         0.1386
     49 H27        -2.9374   -0.5314    1.3671 H         1 <0>         0.1422
     50 H28        -1.6709   -0.2077    3.4370 H         1 <0>         0.0944
     51 H29        -0.9305   -1.5293    2.5023 H         1 <0>         0.0718
     52 H30         0.6970    0.0487    3.2553 H         1 <0>         0.4088
     53 H31        -0.3361   -0.1325    0.0687 H         1 <0>         0.4289
@<TRIPOS>BOND
     1    1    2 1
     2    1   24 1
     3    1   25 1
     4    1   26 1
     5    2    3 1
     6    2   27 1
     7    2   28 1
     8    3    4 1
     9    3   21 1
    10    3   53 1
    11    4    5 1
    12    4   29 1
    13    4   30 1
    14    5    6 1
    15    5   31 1
    16    5   32 1
    17    6    7 1
    18    6    8 1
    19    6   20 1
    20    8   13 ar
    21    8    9 ar
    22    9   10 ar
    23    9   33 1
    24   10   11 ar
    25   10   34 1
    26   11   12 ar
    27   11   15 1
    28   12   13 ar
    29   12   14 1
    30   13   35 1
    31   14   36 1
    32   14   37 1
    33   15   16 1
    34   16   17 1
    35   16   38 1
    36   16   39 1
    37   17   18 1
    38   17   19 1
    39   17   40 1
    40   18   41 1
    41   18   42 1
    42   18   43 1
    43   19   44 1
    44   19   45 1
    45   19   46 1
    46   20   47 1
    47   21   22 1
    48   21   48 1
    49   21   49 1
    50   22   23 1
    51   22   50 1
    52   22   51 1
    53   23   52 1
@<TRIPOS>MOLECULE
ZINC01606812
   39    38     0     0     0
SMALL
USER_CHARGES
tert-butyl [N'-(2-amino-4-methylsulfanyl-butanoyl)hydrazino]formate
@<TRIPOS>ATOM
      1 C1          5.5658    3.5334   -1.2814 C.3       1 <0>        -0.1883
      2 C2          4.7904    3.9271   -0.0226 C.3       1 <0>         0.1395
      3 C3          4.5694    5.4410   -0.0124 C.3       1 <0>        -0.1431
      4 C4          5.5897    3.5199    1.2169 C.3       1 <0>        -0.1886
      5 O1          3.5058    3.2503   -0.0140 O.3       1 <0>        -0.3689
      6 C5          3.5241    1.9041   -0.0214 C.2       1 <0>         0.6604
      7 O2          4.5845    1.3109   -0.0347 O.2       1 <0>        -0.5226
      8 N1          2.3662    1.2144   -0.0140 N.am      1 <0>        -0.4960
      9 N2          1.1435    1.8983    0.0013 N.am      1 <0>        -0.4893
     10 C6         -0.0144    1.2086    0.0087 C.2       1 <0>         0.5019
     11 O3          0.0021   -0.0041    0.0020 O.2       1 <0>        -0.5150
     12 C7         -1.3296    1.9443    0.0189 C.3       1 <0>         0.0334
     13 H1         -1.2655    2.8123   -0.6372 H         1 <0>         0.1727
     14 C8         -1.6456    2.4042    1.4435 C.3       1 <0>        -0.1295
     15 C9         -2.9159    3.2570    1.4342 C.3       1 <0>        -0.1219
     16 S1         -3.2906    3.8022    3.1232 S.3       1 <0>        -0.2206
     17 C10        -4.8026    4.7877    2.9410 C.3       1 <0>        -0.1263
     18 H2         -2.2423    0.7837   -1.4158 H         1 <0>         0.4464
     19 H3         -2.4740    0.2371    0.1377 H         1 <0>         0.4480
     20 H4          4.9964    3.8234   -2.1645 H         1 <0>         0.0630
     21 H5          6.5302    4.0414   -1.2879 H         1 <0>         0.0808
     22 H6          5.7233    2.4548   -1.2887 H         1 <0>         0.0862
     23 H7          4.0170    5.7215    0.8845 H         1 <0>         0.0693
     24 H8          5.5338    5.9490   -0.0188 H         1 <0>         0.0895
     25 H9          4.0000    5.7310   -0.8954 H         1 <0>         0.0686
     26 H10         5.7471    2.4414    1.2096 H         1 <0>         0.0863
     27 H11         6.5540    4.0280    1.2104 H         1 <0>         0.0807
     28 H12         5.0373    3.8004    2.1137 H         1 <0>         0.0638
     29 H13         2.3793    0.2445   -0.0193 H         1 <0>         0.4564
     30 H14         1.1304    2.8682    0.0067 H         1 <0>         0.4414
     31 H15        -1.7974    1.5333    2.0812 H         1 <0>         0.1134
     32 H16        -0.8141    2.9951    1.8275 H         1 <0>         0.1296
     33 H17        -2.7641    4.1279    0.7965 H         1 <0>         0.1026
     34 H18        -3.7474    2.6660    1.0502 H         1 <0>         0.0798
     35 H19        -4.6112    5.6264    2.2717 H         1 <0>         0.0841
     36 H20        -5.5945    4.1646    2.5254 H         1 <0>         0.0822
     37 H21        -5.1107    5.1642    3.9164 H         1 <0>         0.1138
     38 N3         -2.4145    1.0655   -0.4522 N.4       1 <0>        -0.6303
     39 H22        -3.3051    1.5743   -0.4060 H         1 <0>         0.4466
@<TRIPOS>BOND
     1    1    2 1
     2    1   20 1
     3    1   21 1
     4    1   22 1
     5    2    3 1
     6    2    4 1
     7    2    5 1
     8    3   23 1
     9    3   24 1
    10    3   25 1
    11    4   26 1
    12    4   27 1
    13    4   28 1
    14    5    6 1
    15    6    7 2
    16    6    8 am
    17    8    9 1
    18    8   29 1
    19    9   10 am
    20    9   30 1
    21   10   11 2
    22   10   12 1
    23   12   13 1
    24   12   14 1
    25   12   38 1
    26   14   15 1
    27   14   31 1
    28   14   32 1
    29   15   16 1
    30   15   33 1
    31   15   34 1
    32   16   17 1
    33   17   35 1
    34   17   36 1
    35   17   37 1
    36   18   38 1
    37   19   38 1
    38   38   39 1
@<TRIPOS>MOLECULE
ZINC37728208
   42    42     0     0     0
SMALL
USER_CHARGES

@<TRIPOS>ATOM
      1 C1         -0.0187    1.5258    0.0104 C.3       1 <0>        -0.1845
      2 C2          0.0021   -0.0041    0.0020 C.3       1 <0>         0.0316
      3 H1         -1.0205   -0.3814    0.0098 H         1 <0>         0.1423
      4 C3          0.7182   -0.4975   -1.2568 C.3       1 <0>        -0.0962
      5 C4          0.6316   -2.0003   -1.3275 C.ar      1 <0>        -0.1266
      6 C5          1.6125   -2.7762   -0.7382 C.ar      1 <0>        -0.1369
      7 C6          1.5377   -4.1552   -0.8003 C.ar      1 <0>        -0.1674
      8 C7          0.4776   -4.7627   -1.4539 C.ar      1 <0>         0.1174
      9 C8         -0.5099   -3.9818   -2.0467 C.ar      1 <0>         0.1204
     10 C9         -0.4314   -2.6001   -1.9766 C.ar      1 <0>        -0.1630
     11 O1         -1.5523   -4.5734   -2.6893 O.3       1 <0>        -0.2964
     12 C10        -2.5286   -3.7092   -3.2742 C.3       1 <0>         0.0768
     13 C11        -3.6158   -4.5495   -3.9471 C.3       1 <0>        -0.1131
     14 H2         -3.1567   -5.2330   -4.6613 H         1 <0>         0.1147
     15 C12        -4.3701   -5.3524   -2.8853 C.3       1 <0>        -0.1458
     16 C13        -4.5783   -3.6414   -4.6681 C.2       1 <0>         0.5291
     17 O2         -4.4112   -2.4404   -4.6460 O.2       1 <0>        -0.5471
     18 N1         -5.6248   -4.1640   -5.3376 N.am      1 <0>        -0.8470
     19 O3          0.4027   -6.1192   -1.5163 O.3       1 <0>        -0.2994
     20 C14         1.4519   -6.8565   -0.8859 C.3       1 <0>         0.0224
     21 N2          0.7126   -0.4907    1.1921 N.4       1 <0>        -0.6381
     22 H3          1.0039    1.9031    0.0027 H         1 <0>         0.0834
     23 H4         -0.5459    1.8868   -0.8726 H         1 <0>         0.1080
     24 H5         -0.5289    1.8773    0.9072 H         1 <0>         0.0841
     25 H6          0.2444   -0.0644   -2.1377 H         1 <0>         0.1203
     26 H7          1.7648   -0.1951   -1.2215 H         1 <0>         0.0994
     27 H8          2.4393   -2.3039   -0.2285 H         1 <0>         0.1263
     28 H9          2.3056   -4.7590   -0.3397 H         1 <0>         0.1437
     29 H10        -1.1985   -1.9918   -2.4326 H         1 <0>         0.1436
     30 H11        -2.9769   -3.0894   -2.4977 H         1 <0>         0.0718
     31 H12        -2.0504   -3.0712   -4.0174 H         1 <0>         0.0756
     32 H13        -4.8292   -4.6688   -2.1711 H         1 <0>         0.0616
     33 H14        -5.1446   -5.9510   -3.3647 H         1 <0>         0.0677
     34 H15        -3.6739   -6.0092   -2.3638 H         1 <0>         0.0793
     35 H16        -5.7585   -5.1245   -5.3553 H         1 <0>         0.4058
     36 H17        -6.2444   -3.5794   -5.8017 H         1 <0>         0.4084
     37 H18         2.4058   -6.5945   -1.3436 H         1 <0>         0.0598
     38 H19         1.4795   -6.6133    0.1762 H         1 <0>         0.0581
     39 H20         1.2707   -7.9242   -1.0095 H         1 <0>         0.1091
     40 H21         0.2403   -0.1653    2.0223 H         1 <0>         0.4358
     41 H22         0.7263   -1.4996    1.1866 H         1 <0>         0.4334
     42 H23         1.6592   -0.1414    1.1850 H         1 <0>         0.4316
@<TRIPOS>BOND
     1    1    2 1
     2    1   22 1
     3    1   23 1
     4    1   24 1
     5    2    3 1
     6    2    4 1
     7    2   21 1
     8    4    5 1
     9    4   25 1
    10    4   26 1
    11    5   10 ar
    12    5    6 ar
    13    6    7 ar
    14    6   27 1
    15    7    8 ar
    16    7   28 1
    17    8    9 ar
    18    8   19 1
    19    9   10 ar
    20    9   11 1
    21   10   29 1
    22   11   12 1
    23   12   13 1
    24   12   30 1
    25   12   31 1
    26   13   14 1
    27   13   15 1
    28   13   16 1
    29   15   32 1
    30   15   33 1
    31   15   34 1
    32   16   17 2
    33   16   18 am
    34   18   35 1
    35   18   36 1
    36   19   20 1
    37   20   37 1
    38   20   38 1
    39   20   39 1
    40   21   40 1
    41   21   41 1
    42   21   42 1
@<TRIPOS>MOLECULE
ZINC20309645
   45    44     0     0     0
SMALL
USER_CHARGES

@<TRIPOS>ATOM
      1 C1         -0.4268    2.6124   -0.2797 C.3       1 <0>        -0.1446
      2 C2         -0.1013    1.1179   -0.2441 C.3       1 <0>         0.0727
      3 H1          0.3760    0.8276   -1.1801 H         1 <0>         0.0849
      4 C3          0.8319    0.8342    0.9047 C.2       1 <0>         0.5165
      5 O1          0.4968    0.0686    1.7830 O.2       1 <0>        -0.4543
      6 N1          2.0389    1.4316    0.9557 N.am      1 <0>        -0.6876
      7 C4          2.8735    1.1779    1.9831 C.2       1 <0>         0.6956
      8 O2          2.5376    0.4104    2.8636 O.2       1 <0>        -0.5285
      9 N2          4.0805    1.7753    2.0342 N.am      1 <0>        -0.8529
     10 N3         -1.3416    0.3507   -0.0684 N.3       1 <0>        -0.6650
     11 C5         -2.0005    0.1122   -1.3595 C.3       1 <0>         0.0348
     12 C6         -3.2855   -0.6877   -1.1362 C.3       1 <0>        -0.0198
     13 N4         -4.0167   -0.8039   -2.4050 N.4       1 <0>        -0.3783
     14 C7         -3.2311   -1.6075   -3.3511 C.3       1 <0>         0.0171
     15 C8         -3.4948   -3.0935   -3.0997 C.3       1 <0>        -0.1864
     16 C9         -3.6380   -1.2523   -4.7826 C.3       1 <0>        -0.2041
     17 C10        -5.3114   -1.4556   -2.1662 C.3       1 <0>         0.0162
     18 C11        -6.0698   -0.6983   -1.0743 C.3       1 <0>        -0.1859
     19 C12        -6.1325   -1.4469   -3.4572 C.3       1 <0>        -0.1885
     20 H2          0.4936    3.1817   -0.4101 H         1 <0>         0.0709
     21 H3         -1.1017    2.8176   -1.1106 H         1 <0>         0.0717
     22 H4         -0.9040    2.9027    0.6563 H         1 <0>         0.0773
     23 H5          2.3070    2.0442    0.2530 H         1 <0>         0.4121
     24 H6          4.3486    2.3879    1.3314 H         1 <0>         0.4018
     25 H7          4.6812    1.5927    2.7736 H         1 <0>         0.4250
     26 H8         -1.1643   -0.5182    0.4130 H         1 <0>         0.3666
     27 H9         -2.2433    1.0672   -1.8254 H         1 <0>         0.0968
     28 H10        -1.3311   -0.4500   -2.0107 H         1 <0>         0.0557
     29 H11        -3.0349   -1.6829   -0.7689 H         1 <0>         0.1300
     30 H12        -3.9092   -0.1762   -0.4031 H         1 <0>         0.1483
     31 H13        -2.1704   -1.3982   -3.2123 H         1 <0>         0.1351
     32 H14        -4.5296   -3.3265   -3.3510 H         1 <0>         0.0879
     33 H15        -2.8269   -3.6911   -3.7201 H         1 <0>         0.1035
     34 H16        -3.3159   -3.3216   -2.0490 H         1 <0>         0.0786
     35 H17        -4.7157   -1.3716   -4.8942 H         1 <0>         0.0991
     36 H18        -3.3631   -0.2187   -4.9926 H         1 <0>         0.0804
     37 H19        -3.1250   -1.9137   -5.4808 H         1 <0>         0.1040
     38 H20        -5.1467   -2.4848   -1.8472 H         1 <0>         0.1432
     39 H21        -6.2344    0.3309   -1.3933 H         1 <0>         0.0810
     40 H22        -7.0305   -1.1819   -0.8971 H         1 <0>         0.1055
     41 H23        -5.4848   -0.7045   -0.1546 H         1 <0>         0.0845
     42 H24        -6.0515   -0.4695   -3.9328 H         1 <0>         0.0819
     43 H25        -5.7536   -2.2128   -4.1339 H         1 <0>         0.0920
     44 H26        -7.1774   -1.6524   -3.2246 H         1 <0>         0.1044
     45 H27        -4.1692    0.1159   -2.7908 H         1 <0>         0.4205
@<TRIPOS>BOND
     1    1    2 1
     2    1   20 1
     3    1   21 1
     4    1   22 1
     5    2    3 1
     6    2    4 1
     7    2   10 1
     8    4    5 2
     9    4    6 am
    10    6    7 am
    11    6   23 1
    12    7    8 2
    13    7    9 am
    14    9   24 1
    15    9   25 1
    16   10   11 1
    17   10   26 1
    18   11   12 1
    19   11   27 1
    20   11   28 1
    21   12   13 1
    22   12   29 1
    23   12   30 1
    24   13   14 1
    25   13   17 1
    26   13   45 1
    27   14   15 1
    28   14   16 1
    29   14   31 1
    30   15   32 1
    31   15   33 1
    32   15   34 1
    33   16   35 1
    34   16   36 1
    35   16   37 1
    36   17   18 1
    37   17   19 1
    38   17   38 1
    39   18   39 1
    40   18   40 1
    41   18   41 1
    42   19   42 1
    43   19   43 1
    44   19   44 1
@<TRIPOS>MOLECULE
ZINC42954082
   37    37     0     0     0
SMALL
USER_CHARGES

@<TRIPOS>ATOM
      1 C1          0.3216    1.0541    0.6741 C.ar      1 <0>        -0.0972
      2 C2          1.6361    1.3928    0.9348 C.ar      1 <0>        -0.0856
      3 C3          2.6455    0.4761    0.7020 C.ar      1 <0>        -0.0756
      4 C4          2.3389   -0.7791    0.2082 C.ar      1 <0>        -0.0896
      5 C5          1.0241   -1.1169   -0.0522 C.ar      1 <0>        -0.0921
      6 C6          0.0157   -0.2005    0.1807 C.ar      1 <0>        -0.0942
      7 C7         -1.4176   -0.5692   -0.1034 C.3       1 <0>         0.0872
      8 H1         -2.0509    0.3087    0.0244 H         1 <0>         0.0842
      9 C8         -1.8640   -1.6655    0.8661 C.3       1 <0>         0.0056
     10 N1         -3.2291   -2.0909    0.5294 N.4       1 <0>        -0.6405
     11 N2         -1.5329   -1.0594   -1.4834 N.3       1 <0>        -0.5310
     12 C9         -2.9141   -0.9429   -1.9698 C.3       1 <0>         0.0244
     13 C10        -3.3080    0.5339   -2.0379 C.3       1 <0>         0.0362
     14 O1         -2.6501    1.1518   -3.1458 O.3       1 <0>        -0.5371
     15 C11        -0.6004   -0.3535   -2.3723 C.3       1 <0>         0.0283
     16 C12        -0.4761   -1.1180   -3.6918 C.3       1 <0>         0.0839
     17 O2         -1.7160   -1.0521   -4.3991 O.3       1 <0>        -0.5585
     18 Br1         4.4441    0.9390    1.0579 Br        1 <0>        -0.0274
     19 H2         -0.4670    1.7682    0.8601 H         1 <0>         0.1329
     20 H3          1.8750    2.3731    1.3199 H         1 <0>         0.1410
     21 H4          3.1267   -1.4950    0.0260 H         1 <0>         0.1410
     22 H5          0.7846   -2.0969   -0.4377 H         1 <0>         0.1394
     23 H6         -1.1882   -2.5171    0.7877 H         1 <0>         0.1428
     24 H7         -1.8448   -1.2791    1.8852 H         1 <0>         0.1399
     25 H8         -3.8127   -1.2779    0.4007 H         1 <0>         0.4303
     26 H9         -3.2125   -2.6311   -0.3227 H         1 <0>         0.4414
     27 H10        -2.9878   -1.3848   -2.9635 H         1 <0>         0.1411
     28 H11        -3.5846   -1.4668   -1.2886 H         1 <0>         0.0513
     29 H12        -4.3875    0.6165   -2.1642 H         1 <0>         0.0554
     30 H13        -3.0110    1.0321   -1.1150 H         1 <0>         0.0399
     31 H14        -2.8541    2.0913   -3.2502 H         1 <0>         0.3786
     32 H15        -0.9753    0.6510   -2.5684 H         1 <0>         0.0957
     33 H16         0.3779   -0.2896   -1.8959 H         1 <0>         0.0971
     34 H17         0.3121   -0.6712   -4.2978 H         1 <0>         0.0522
     35 H18        -0.2299   -2.1598   -3.4863 H         1 <0>         0.0476
     36 H19        -1.7347   -1.5786   -5.2100 H         1 <0>         0.3770
     37 H20        -3.5998   -2.6559    1.2787 H         1 <0>         0.4345
@<TRIPOS>BOND
     1    1    6 ar
     2    1    2 ar
     3    1   19 1
     4    2    3 ar
     5    2   20 1
     6    3    4 ar
     7    3   18 1
     8    4    5 ar
     9    4   21 1
    10    5    6 ar
    11    5   22 1
    12    6    7 1
    13    7    8 1
    14    7    9 1
    15    7   11 1
    16    9   10 1
    17    9   23 1
    18    9   24 1
    19   10   25 1
    20   10   26 1
    21   10   37 1
    22   11   12 1
    23   11   15 1
    24   12   13 1
    25   12   27 1
    26   12   28 1
    27   13   14 1
    28   13   29 1
    29   13   30 1
    30   14   31 1
    31   15   16 1
    32   15   32 1
    33   15   33 1
    34   16   17 1
    35   16   34 1
    36   16   35 1
    37   17   36 1
@<TRIPOS>MOLECULE
ZINC45597796
   38    38     0     0     0
SMALL
USER_CHARGES

@<TRIPOS>ATOM
      1 C1         -0.0187    1.5258    0.0104 C.3       1 <0>        -0.1791
      2 C2          0.0021   -0.0041    0.0020 C.3       1 <0>         0.0489
      3 C3          0.7421   -0.5109    1.2415 C.3       1 <0>        -0.1309
      4 C4         -0.0416   -0.1236    2.4973 C.3       1 <0>        -0.1320
      5 C5          0.6984   -0.6305    3.7368 C.3       1 <0>        -0.1040
      6 C6         -0.0853   -0.2432    4.9925 C.3       1 <0>        -0.1123
      7 S1          0.7921   -0.8441    6.4621 S.3       1 <0>        -0.0800
      8 C7         -0.2229   -0.3261    7.8060 C.2       1 <0>        -0.2521
      9 C8         -1.4296    0.3816    7.7047 C.2       1 <0>         0.0482
     10 N1         -1.8912    0.5844    8.9122 N.2       1 <0>        -0.2768
     11 N2         -0.9975    0.0145    9.8280 N.pl3     1 <0>        -0.3659
     12 C9          0.0211   -0.5461    9.1232 C.2       1 <0>         0.0904
     13 C10        -1.1384    0.0171   11.2862 C.3       1 <0>         0.0973
     14 C11         0.7074   -0.4901   -1.2379 C.2       1 <0>         0.5075
     15 O1          1.8885   -0.7628   -1.1961 O.2       1 <0>        -0.4714
     16 N3          0.0259   -0.6217   -2.3931 N.am      1 <0>        -0.8490
     17 N4         -1.3761   -0.5125    0.0124 N.4       1 <0>        -0.6348
     18 H1          1.0039    1.9031    0.0027 H         1 <0>         0.1176
     19 H2         -0.5459    1.8868   -0.8726 H         1 <0>         0.0891
     20 H3         -0.5289    1.8773    0.9072 H         1 <0>         0.1027
     21 H4          0.8346   -1.5958    1.1912 H         1 <0>         0.0999
     22 H5          1.7350   -0.0630    1.2804 H         1 <0>         0.1272
     23 H6         -0.1341    0.9613    2.5476 H         1 <0>         0.0878
     24 H7         -1.0345   -0.5716    2.4584 H         1 <0>         0.0615
     25 H8          0.7909   -1.7154    3.6864 H         1 <0>         0.0822
     26 H9          1.6914   -0.1825    3.7756 H         1 <0>         0.0865
     27 H10        -0.1778    0.8417    5.0429 H         1 <0>         0.0874
     28 H11        -1.0782   -0.6911    4.9536 H         1 <0>         0.0846
     29 H12        -1.8978    0.7045    6.7866 H         1 <0>         0.1790
     30 H13         0.8711   -1.0690    9.5363 H         1 <0>         0.1831
     31 H14        -1.6892   -0.8697   11.5996 H         1 <0>         0.0812
     32 H15        -0.1505    0.0128   11.7467 H         1 <0>         0.0937
     33 H16        -1.6804    0.9102   11.5972 H         1 <0>         0.0945
     34 H17        -0.9187   -0.4036   -2.4265 H         1 <0>         0.3960
     35 H18         0.4799   -0.9345   -3.1912 H         1 <0>         0.4278
     36 H19        -1.8641   -0.1783   -0.8050 H         1 <0>         0.4314
     37 H20        -1.3624   -1.5214    0.0069 H         1 <0>         0.4408
     38 H21        -1.8484   -0.1871    0.8426 H         1 <0>         0.4421
@<TRIPOS>BOND
     1    1    2 1
     2    1   18 1
     3    1   19 1
     4    1   20 1
     5    2    3 1
     6    2   14 1
     7    2   17 1
     8    3    4 1
     9    3   21 1
    10    3   22 1
    11    4    5 1
    12    4   23 1
    13    4   24 1
    14    5    6 1
    15    5   25 1
    16    5   26 1
    17    6    7 1
    18    6   27 1
    19    6   28 1
    20    7    8 1
    21    8   12 2
    22    8    9 1
    23    9   10 2
    24    9   29 1
    25   10   11 1
    26   11   12 1
    27   11   13 1
    28   12   30 1
    29   13   31 1
    30   13   32 1
    31   13   33 1
    32   14   15 2
    33   14   16 am
    34   16   34 1
    35   16   35 1
    36   17   36 1
    37   17   37 1
    38   17   38 1
@<TRIPOS>MOLECULE
ZINC04556649
   62    61     0     0     0
SMALL
USER_CHARGES
2-amino-N-[1-[(1-carbamoyl-3-methyl-butyl)carbamoyl]-3-methyl-butyl]-4-methyl-pentanamide
@<TRIPOS>ATOM
      1 C1          6.3027    5.3429   -1.9508 C.3       1 <0>        -0.1663
      2 C2          5.3461    6.4889   -2.2863 C.3       1 <0>        -0.1013
      3 C3          5.4516    6.8218   -3.7759 C.3       1 <0>        -0.1552
      4 C4          3.9120    6.0688   -1.9579 C.3       1 <0>        -0.1376
      5 C5          3.7756    5.8564   -0.4489 C.3       1 <0>         0.0122
      6 H1          4.5259    5.1403   -0.1135 H         1 <0>         0.1655
      7 C6          2.4000    5.3250   -0.1387 C.2       1 <0>         0.5056
      8 O1          1.5378    6.0747    0.2683 O.2       1 <0>        -0.5219
      9 N1          2.1277    4.0166   -0.3135 N.am      1 <0>        -0.6847
     10 C7          0.7638    3.5196   -0.1165 C.3       1 <0>         0.1228
     11 H2          0.2665    4.1163    0.6482 H         1 <0>         0.1259
     12 C8         -0.0124    3.6253   -1.4308 C.3       1 <0>        -0.1180
     13 C9         -1.4502    3.1494   -1.2137 C.3       1 <0>        -0.1148
     14 C10        -2.1701    4.1150   -0.2701 C.3       1 <0>        -0.1581
     15 C11        -2.1820    3.1081   -2.5567 C.3       1 <0>        -0.1421
     16 C12         0.8127    2.0790    0.3235 C.2       1 <0>         0.5228
     17 O2          1.8498    1.4554    0.2432 O.2       1 <0>        -0.5317
     18 N2         -0.2960    1.4838    0.8062 N.am      1 <0>        -0.6965
     19 C13        -0.2665    0.0648    1.1694 C.3       1 <0>         0.1223
     20 H3          0.7118   -0.1848    1.5801 H         1 <0>         0.1238
     21 C14        -1.3461   -0.2161    2.2164 C.3       1 <0>        -0.1243
     22 C15        -1.0352    0.5684    3.4927 C.3       1 <0>        -0.0937
     23 C16        -2.1838    0.3975    4.4889 C.3       1 <0>        -0.1516
     24 C17         0.2603    0.0410    4.1127 C.3       1 <0>        -0.1548
     25 C18        -0.5253   -0.7729   -0.0563 C.2       1 <0>         0.5056
     26 O3         -0.7157   -0.2374   -1.1277 O.2       1 <0>        -0.5302
     27 N3         -0.5452   -2.1172    0.0382 N.am      1 <0>        -0.8493
     28 H4          6.0377    4.4644   -2.5391 H         1 <0>         0.0714
     29 H5          7.3243    5.6422   -2.1847 H         1 <0>         0.0737
     30 H6          6.2275    5.1058   -0.8896 H         1 <0>         0.0526
     31 H7          5.6110    7.3674   -1.6980 H         1 <0>         0.0679
     32 H8          4.7701    7.6382   -4.0149 H         1 <0>         0.0628
     33 H9          6.4732    7.1211   -4.0098 H         1 <0>         0.0701
     34 H10         5.1866    5.9433   -4.3642 H         1 <0>         0.0667
     35 H11         3.6772    5.1402   -2.4782 H         1 <0>         0.1192
     36 H12         3.2222    6.8495   -2.2787 H         1 <0>         0.1008
     37 H13         2.8348    3.4041   -0.5697 H         1 <0>         0.4201
     38 H14        -0.0197    4.6625   -1.7660 H         1 <0>         0.0814
     39 H15         0.4663    3.0026   -2.1865 H         1 <0>         0.0786
     40 H16        -1.4403    2.1518   -0.7745 H         1 <0>         0.0938
     41 H17        -2.2458    5.0948   -0.7415 H         1 <0>         0.0624
     42 H18        -3.1696    3.7365   -0.0562 H         1 <0>         0.0642
     43 H19        -1.6076    4.2015    0.6596 H         1 <0>         0.0500
     44 H20        -1.6691    2.4202   -3.2289 H         1 <0>         0.0585
     45 H21        -3.2063    2.7690   -2.4021 H         1 <0>         0.0605
     46 H22        -2.1919    4.1056   -2.9959 H         1 <0>         0.0536
     47 H23        -1.1145    1.9939    0.9093 H         1 <0>         0.4107
     48 H24        -2.3172    0.0912    1.8285 H         1 <0>         0.0804
     49 H25        -1.3655   -1.2825    2.4411 H         1 <0>         0.0913
     50 H26        -0.9184    1.6247    3.2505 H         1 <0>         0.0705
     51 H27        -2.3579   -0.6641    4.6641 H         1 <0>         0.0596
     52 H28        -1.9241    0.8831    5.4296 H         1 <0>         0.0601
     53 H29        -3.0876    0.8518    4.0828 H         1 <0>         0.0573
     54 H30         1.0786    0.1628    3.4030 H         1 <0>         0.0540
     55 H31         0.4818    0.5999    5.0219 H         1 <0>         0.0593
     56 H32         0.1436   -1.0153    4.3549 H         1 <0>         0.0610
     57 H33        -0.3930   -2.5455    0.8951 H         1 <0>         0.4031
     58 H34        -0.7118   -2.6564   -0.7508 H         1 <0>         0.4072
     59 H35         4.9123    7.4808    0.1058 H         1 <0>         0.4431
     60 H36         3.2908    7.8167   -0.0483 H         1 <0>         0.4446
     61 N4          3.9708    7.1280    0.2695 N.4       1 <0>        -0.6298
     62 H37         3.8425    6.9702    1.2759 H         1 <0>         0.4450
@<TRIPOS>BOND
     1    1    2 1
     2    1   28 1
     3    1   29 1
     4    1   30 1
     5    2    3 1
     6    2    4 1
     7    2   31 1
     8    3   32 1
     9    3   33 1
    10    3   34 1
    11    4    5 1
    12    4   35 1
    13    4   36 1
    14    5    6 1
    15    5    7 1
    16    5   61 1
    17    7    8 2
    18    7    9 am
    19    9   10 1
    20    9   37 1
    21   10   11 1
    22   10   12 1
    23   10   16 1
    24   12   13 1
    25   12   38 1
    26   12   39 1
    27   13   14 1
    28   13   15 1
    29   13   40 1
    30   14   41 1
    31   14   42 1
    32   14   43 1
    33   15   44 1
    34   15   45 1
    35   15   46 1
    36   16   17 2
    37   16   18 am
    38   18   19 1
    39   18   47 1
    40   19   20 1
    41   19   21 1
    42   19   25 1
    43   21   22 1
    44   21   48 1
    45   21   49 1
    46   22   23 1
    47   22   24 1
    48   22   50 1
    49   23   51 1
    50   23   52 1
    51   23   53 1
    52   24   54 1
    53   24   55 1
    54   24   56 1
    55   25   26 2
    56   25   27 am
    57   27   57 1
    58   27   58 1
    59   59   61 1
    60   60   61 1
    61   61   62 1
@<TRIPOS>MOLECULE
ZINC06904929
   58    60     0     0     0
SMALL
USER_CHARGES
4-amino-N'-[(4-fluorophenyl)-(2-methoxyethylcarbamoyl)methyl]-N'-[(4-fluorophenyl)methyl]isothiazole-3,5-dicarboxamide
@<TRIPOS>ATOM
      1 C1          0.8656   -6.3479    4.6499 C.3       1 <0>         0.0307
      2 O1          0.0926   -5.2690    4.1203 O.3       1 <0>        -0.3874
      3 C2         -0.8469   -5.6640    3.1187 C.3       1 <0>         0.0451
      4 C3         -1.6142   -4.4353    2.6262 C.3       1 <0>         0.1220
      5 N1         -0.6899   -3.5206    1.9514 N.am      1 <0>        -0.7117
      6 C4         -1.1459   -2.3633    1.4326 C.2       1 <0>         0.5195
      7 O2         -2.3214   -2.0792    1.5243 O.2       1 <0>        -0.5219
      8 C5         -0.1952   -1.4224    0.7384 C.3       1 <0>         0.1797
      9 H1          0.7773   -1.9027    0.6304 H         1 <0>         0.1210
     10 C6         -0.7378   -1.0746   -0.6238 C.ar      1 <0>        -0.1095
     11 C7         -1.7460   -0.1368   -0.7469 C.ar      1 <0>        -0.0607
     12 C8         -2.2404    0.1871   -1.9961 C.ar      1 <0>        -0.1539
     13 C9         -1.7337   -0.4366   -3.1236 C.ar      1 <0>         0.1084
     14 C10        -0.7278   -1.3798   -2.9986 C.ar      1 <0>        -0.1536
     15 C11        -0.2307   -1.6976   -1.7489 C.ar      1 <0>        -0.0685
     16 F1         -2.2207   -0.1255   -4.3448 F         1 <0>        -0.1373
     17 N2         -0.0506   -0.2002    1.5331 N.am      1 <0>        -0.5911
     18 C12        -1.2025    0.3435    2.2569 C.3       1 <0>         0.1400
     19 C13        -1.1646   -0.1277    3.6878 C.ar      1 <0>        -0.1251
     20 C14        -2.1355   -0.9934    4.1558 C.ar      1 <0>        -0.0612
     21 C15        -2.0991   -1.4300    5.4666 C.ar      1 <0>        -0.1525
     22 C16        -1.0957   -0.9917    6.3140 C.ar      1 <0>         0.1113
     23 C17        -0.1269   -0.1204    5.8456 C.ar      1 <0>        -0.1538
     24 C18        -0.1623    0.3106    4.5331 C.ar      1 <0>        -0.0934
     25 F2         -1.0618   -1.4141    7.5968 F         1 <0>        -0.1386
     26 C19         1.1421    0.4241    1.5983 C.2       1 <0>         0.6304
     27 O3          2.0793    0.0164    0.9374 O.2       1 <0>        -0.5217
     28 C20         1.3104    1.5928    2.4643 C.2       1 <0>        -0.4016
     29 C21         2.4692    2.0919    3.0617 C.2       1 <0>         0.2796
     30 C22         2.2274    3.2350    3.8237 C.2       1 <0>        -0.0358
     31 N3          1.0034    3.7079    3.9037 N.2       1 <0>        -0.4399
     32 S1          0.0930    2.7623    3.0312 S.3       1 <0>         0.4620
     33 C23         3.3329    3.9056    4.5323 C.2       1 <0>         0.6022
     34 O4          4.4627    3.4625    4.4543 O.2       1 <0>        -0.5402
     35 N4          3.0913    5.0096    5.2666 N.am      1 <0>        -0.8295
     36 N5          3.7233    1.5149    2.9134 N.pl3     1 <0>        -0.8028
     37 H2          1.5543   -5.9658    5.4035 H         1 <0>         0.0878
     38 H3          0.2008   -7.0824    5.1044 H         1 <0>         0.0435
     39 H4          1.4315   -6.8184    3.8459 H         1 <0>         0.0430
     40 H5         -1.5473   -6.3843    3.5414 H         1 <0>         0.0690
     41 H6         -0.3166   -6.1203    2.2828 H         1 <0>         0.0583
     42 H7         -2.0719   -3.9282    3.4755 H         1 <0>         0.0807
     43 H8         -2.3907   -4.7477    1.9279 H         1 <0>         0.0876
     44 H9          0.2502   -3.7479    1.8780 H         1 <0>         0.4060
     45 H10        -2.1447    0.3459    0.1332 H         1 <0>         0.1355
     46 H11        -3.0248    0.9232   -2.0925 H         1 <0>         0.1391
     47 H12        -0.3320   -1.8672   -3.8774 H         1 <0>         0.1390
     48 H13         0.5539   -2.4333   -1.6511 H         1 <0>         0.1351
     49 H14        -1.1662    1.4326    2.2319 H         1 <0>         0.0784
     50 H15        -2.1231   -0.0003    1.7854 H         1 <0>         0.1303
     51 H16        -2.9205   -1.3319    3.4957 H         1 <0>         0.1476
     52 H17        -2.8554   -2.1095    5.8308 H         1 <0>         0.1359
     53 H18         0.6565    0.2218    6.5056 H         1 <0>         0.1317
     54 H19         0.5935    0.9899    4.1674 H         1 <0>         0.1315
     55 H20         2.1902    5.3631    5.3289 H         1 <0>         0.4121
     56 H21         3.8186    5.4508    5.7328 H         1 <0>         0.4107
     57 H22         3.8297    0.7189    2.3694 H         1 <0>         0.4150
     58 H23         4.4931    1.9078    3.3538 H         1 <0>         0.4215
@<TRIPOS>BOND
     1    1    2 1
     2    1   37 1
     3    1   38 1
     4    1   39 1
     5    2    3 1
     6    3    4 1
     7    3   40 1
     8    3   41 1
     9    4    5 1
    10    4   42 1
    11    4   43 1
    12    5    6 am
    13    5   44 1
    14    6    7 2
    15    6    8 1
    16    8    9 1
    17    8   10 1
    18    8   17 1
    19   10   15 ar
    20   10   11 ar
    21   11   12 ar
    22   11   45 1
    23   12   13 ar
    24   12   46 1
    25   13   14 ar
    26   13   16 1
    27   14   15 ar
    28   14   47 1
    29   15   48 1
    30   17   18 1
    31   17   26 am
    32   18   19 1
    33   18   49 1
    34   18   50 1
    35   19   24 ar
    36   19   20 ar
    37   20   21 ar
    38   20   51 1
    39   21   22 ar
    40   21   52 1
    41   22   23 ar
    42   22   25 1
    43   23   24 ar
    44   23   53 1
    45   24   54 1
    46   26   27 2
    47   26   28 1
    48   28   32 1
    49   28   29 2
    50   29   30 1
    51   29   36 1
    52   30   31 2
    53   30   33 1
    54   31   32 1
    55   33   34 2
    56   33   35 am
    57   35   55 1
    58   35   56 1
    59   36   57 1
    60   36   58 1
@<TRIPOS>MOLECULE
ZINC05845691
   55    55     0     0     0
SMALL
USER_CHARGES
(2S)-2-[5-(5-methyl-2,4-dioxo-pyrimidin-1-yl)pentoxycarbonylamino]-5-ureido-pentanoic acid
@<TRIPOS>ATOM
      1 C1          2.7378    2.2202    4.7134 C.3       1 <0>        -0.0793
      2 C2          1.6332    1.4021    4.0957 C.2       1 <0>        -0.2679
      3 C3          0.9805    1.8492    3.0016 C.2       1 <0>         0.1716
      4 N1         -0.0203    1.0939    2.4537 N.am      1 <0>        -0.5312
      5 C4         -0.3635   -0.0876    2.9980 C.2       1 <0>         0.6931
      6 O1         -1.2589   -0.7405    2.4977 O.2       1 <0>        -0.5347
      7 N2          0.2740   -0.5596    4.0854 N.am      1 <0>        -0.6634
      8 H1          0.0111   -1.4435    4.4723 H         1 <0>         0.4373
      9 C5          1.2657    0.1546    4.6552 C.2       1 <0>         0.5541
     10 O2          1.8396   -0.2694    5.6421 O.2       1 <0>        -0.5152
     11 C6         -0.7288    1.5792    1.2668 C.3       1 <0>         0.1075
     12 C7         -0.0127    1.0858    0.0080 C.3       1 <0>        -0.1356
     13 C8         -0.7527    1.5927   -1.2315 C.3       1 <0>        -0.1129
     14 C9         -0.0366    1.0992   -2.4903 C.3       1 <0>        -0.1179
     15 C10        -0.7766    1.6061   -3.7298 C.3       1 <0>         0.0877
     16 O3         -0.0969    1.1378   -4.9245 O.3       1 <0>        -0.3778
     17 C11        -0.6247    1.4990   -6.1092 C.2       1 <0>         0.6516
     18 O4         -1.6259    2.1866   -6.1440 O.2       1 <0>        -0.5756
     19 N3         -0.0426    1.0977   -7.2567 N.am      1 <0>        -0.6782
     20 C12        -0.6170    1.4907   -8.5459 C.3       1 <0>         0.1191
     21 H2         -1.0360    2.4938   -8.4663 H         1 <0>         0.0930
     22 C13         0.4762    1.4781   -9.6163 C.3       1 <0>        -0.1054
     23 C14         1.5183    2.5509   -9.2936 C.3       1 <0>        -0.1297
     24 C15         2.6115    2.5383  -10.3640 C.3       1 <0>         0.1350
     25 N4          3.6093    3.5654  -10.0550 N.am      1 <0>        -0.7433
     26 C16         4.6718    3.7384  -10.8660 C.2       1 <0>         0.7021
     27 O5          4.8021    3.0420  -11.8541 O.2       1 <0>        -0.5953
     28 N5          5.5898    4.6834  -10.5817 N.am      1 <0>        -0.8710
     29 C17        -1.7051    0.5205   -8.9277 C.2       1 <0>         0.4563
     30 O6         -1.9733   -0.4043   -8.1978 O.co2     1 <0>        -0.6265
     31 H3          2.3180    2.8893    5.4645 H         1 <0>         0.0690
     32 H4          3.4629    1.5557    5.1834 H         1 <0>         0.0758
     33 H5          3.2316    2.8073    3.9392 H         1 <0>         0.0697
     34 H6          1.2474    2.7984    2.5608 H         1 <0>         0.1781
     35 H7         -0.7436    2.6691    1.2728 H         1 <0>         0.0998
     36 H8         -1.7514    1.2020    1.2746 H         1 <0>         0.1057
     37 H9          0.0021   -0.0041    0.0020 H         1 <0>         0.0752
     38 H10         1.0099    1.4631    0.0003 H         1 <0>         0.0714
     39 H11        -1.7753    1.2154   -1.2238 H         1 <0>         0.0741
     40 H12        -0.7675    2.6825   -1.2255 H         1 <0>         0.0713
     41 H13         0.9860    1.4765   -2.4981 H         1 <0>         0.0729
     42 H14        -0.0218    0.0093   -2.4963 H         1 <0>         0.0756
     43 H15        -1.7991    1.2288   -3.7221 H         1 <0>         0.0694
     44 H16        -0.7913    2.6960   -3.7239 H         1 <0>         0.0662
     45 H17         0.7566    0.5488   -7.2289 H         1 <0>         0.3981
     46 H18         0.9558    0.4995   -9.6343 H         1 <0>         0.0683
     47 H19         0.0330    1.6836  -10.5906 H         1 <0>         0.0961
     48 H20         1.0388    3.5295   -9.2755 H         1 <0>         0.0697
     49 H21         1.9615    2.3454   -8.3192 H         1 <0>         0.0666
     50 H22         3.0910    1.5596  -10.3820 H         1 <0>         0.0679
     51 H23         2.1683    2.7438  -11.3383 H         1 <0>         0.0702
     52 H24         3.5054    4.1210   -9.2667 H         1 <0>         0.3957
     53 H25         5.4858    5.2390   -9.7934 H         1 <0>         0.3954
     54 H26         6.3544    4.8079  -11.1654 H         1 <0>         0.4127
     55 O7         -2.3763    0.6838  -10.0786 O.co2     1 <0>        -0.7623
@<TRIPOS>BOND
     1    1    2 1
     2    1   31 1
     3    1   32 1
     4    1   33 1
     5    2    9 1
     6    2    3 2
     7    3    4 1
     8    3   34 1
     9    4    5 am
    10    4   11 1
    11    5    6 2
    12    5    7 am
    13    7    8 1
    14    7    9 am
    15    9   10 2
    16   11   12 1
    17   11   35 1
    18   11   36 1
    19   12   13 1
    20   12   37 1
    21   12   38 1
    22   13   14 1
    23   13   39 1
    24   13   40 1
    25   14   15 1
    26   14   41 1
    27   14   42 1
    28   15   16 1
    29   15   43 1
    30   15   44 1
    31   16   17 1
    32   17   18 2
    33   17   19 am
    34   19   20 1
    35   19   45 1
    36   20   21 1
    37   20   22 1
    38   20   29 1
    39   22   23 1
    40   22   46 1
    41   22   47 1
    42   23   24 1
    43   23   48 1
    44   23   49 1
    45   24   25 1
    46   24   50 1
    47   24   51 1
    48   25   26 am
    49   25   52 1
    50   26   27 2
    51   26   28 am
    52   28   53 1
    53   28   54 1
    54   29   30 2
    55   29   55 1
@<TRIPOS>MOLECULE
ZINC39692868
   54    57     0     0     0
SMALL
USER_CHARGES

@<TRIPOS>ATOM
      1 C1         -0.0167    1.3837    0.0096 C.ar      1 <0>        -0.1542
      2 C2          0.0021   -0.0041    0.0020 C.ar      1 <0>        -0.1072
      3 C3         -1.1734   -0.7229    0.0089 C.ar      1 <0>        -0.1282
      4 C4         -2.3924   -0.0535    0.0242 C.ar      1 <0>         0.0960
      5 N1         -3.7041   -0.4723    0.0336 N.pl3     1 <0>        -0.5953
      6 C5         -4.5386    0.6120    0.0473 C.2       1 <0>         0.0525
      7 C6         -3.8178    1.7444    0.0473 C.2       1 <0>        -0.1550
      8 C7         -2.4061    1.3535    0.0323 C.ar      1 <0>        -0.0931
      9 C8         -1.2031    2.0617    0.0303 C.ar      1 <0>        -0.0726
     10 C9         -4.3583    3.1511    0.0598 C.3       1 <0>        -0.0423
     11 C10        -4.4370    3.6799   -1.3738 C.3       1 <0>         0.0854
     12 H1         -5.0256    2.9935   -1.9825 H         1 <0>         0.0853
     13 C11        -5.0908    5.0377   -1.3731 C.2       1 <0>         0.4911
     14 O1         -4.4096    6.0422   -1.2568 O.co2     1 <0>        -0.6909
     15 O2         -6.3008    5.1317   -1.4889 O.co2     1 <0>        -0.6845
     16 N2         -3.0856    3.7889   -1.9289 N.am      1 <0>        -0.6732
     17 C12        -2.8987    3.7366   -3.2627 C.2       1 <0>         0.5265
     18 O3         -3.8493    3.5994   -4.0033 O.2       1 <0>        -0.5249
     19 C13        -1.5087    3.8487   -3.8337 C.3       1 <0>        -0.1575
     20 S1         -1.5879    3.7437   -5.6430 S.3       1 <0>         0.0088
     21 C14         0.1422    3.8932   -6.1674 C.3       1 <0>         0.1287
     22 H2          0.2299    3.8565   -7.2533 H         1 <0>         0.1789
     23 N3          0.7777    5.1281   -5.6091 N.3       1 <0>        -0.4399
     24 N4          2.2284    4.9808   -5.5989 N.3       1 <0>        -0.5124
     25 C15         2.6496    3.6933   -4.9796 C.3       1 <0>         0.1593
     26 H3          2.7838    3.8020   -3.9034 H         1 <0>         0.1619
     27 S2          1.2032    2.6157   -5.3622 S.3       1 <0>        -0.2320
     28 N5          3.8721    3.1791   -5.6114 N.4       1 <0>        -0.4863
     29 C16         4.2558    1.9115   -4.9759 C.3       1 <0>         0.0944
     30 C17         5.5099    1.3840   -5.6240 C.2       1 <0>        -0.1084
     31 C18         6.7691    1.6510   -5.2337 C.2       1 <0>        -0.1362
     32 C19         7.6275    0.9547   -6.1154 C.2       1 <0>        -0.2217
     33 C20         6.8415    0.3039   -6.9917 C.2       1 <0>         0.0180
     34 O4          5.5597    0.5629   -6.6856 O.3       1 <0>        -0.1649
     35 H4          0.9136    1.9321    0.0037 H         1 <0>         0.1146
     36 H5          0.9476   -0.5258   -0.0098 H         1 <0>         0.1188
     37 H6         -1.1483   -1.8026    0.0022 H         1 <0>         0.1165
     38 H7         -5.6175    0.5639    0.0568 H         1 <0>         0.1732
     39 H8         -3.9934   -1.3981    0.0305 H         1 <0>         0.4151
     40 H9         -1.2101    3.1417    0.0361 H         1 <0>         0.1167
     41 H10        -5.3540    3.1538    0.5032 H         1 <0>         0.0897
     42 H11        -3.6975    3.7891    0.6466 H         1 <0>         0.0742
     43 H12        -2.3253    3.8987   -1.3366 H         1 <0>         0.3903
     44 H13        -1.0729    4.8049   -3.5441 H         1 <0>         0.1114
     45 H14        -0.8914    3.0368   -3.4494 H         1 <0>         0.1228
     46 H15         0.4280    5.3281   -4.6841 H         1 <0>         0.3507
     47 H16         2.6681    5.7641   -5.1392 H         1 <0>         0.3859
     48 H17         3.7036    3.0251   -6.5942 H         1 <0>         0.4356
     49 H18         4.4378    2.0778   -3.9142 H         1 <0>         0.1585
     50 H19         3.4513    1.1861   -5.0973 H         1 <0>         0.1498
     51 H20         7.0673    2.2775   -4.4061 H         1 <0>         0.1621
     52 H21         8.7072    0.9472   -6.0903 H         1 <0>         0.1633
     53 H22         7.1831   -0.3238   -7.8015 H         1 <0>         0.2184
     54 H23         4.6168    3.8506   -5.4990 H         1 <0>         0.4265
@<TRIPOS>BOND
     1    1    2 ar
     2    1   35 1
     3    1    9 ar
     4    2    3 ar
     5    2   36 1
     6    3    4 ar
     7    3   37 1
     8    4    5 1
     9    4    8 ar
    10    5   39 1
    11    5    6 1
    12    6    7 2
    13    6   38 1
    14    7    8 1
    15    7   10 1
    16    8    9 ar
    17    9   40 1
    18   10   11 1
    19   10   41 1
    20   10   42 1
    21   11   12 1
    22   11   13 1
    23   11   16 1
    24   13   14 2
    25   13   15 1
    26   16   17 am
    27   16   43 1
    28   17   18 2
    29   17   19 1
    30   19   20 1
    31   19   44 1
    32   19   45 1
    33   20   21 1
    34   21   22 1
    35   21   27 1
    36   21   23 1
    37   23   24 1
    38   23   46 1
    39   24   25 1
    40   24   47 1
    41   25   26 1
    42   25   27 1
    43   25   28 1
    44   28   29 1
    45   28   48 1
    46   28   54 1
    47   29   30 1
    48   29   49 1
    49   29   50 1
    50   30   34 1
    51   30   31 2
    52   31   32 1
    53   31   51 1
    54   32   33 2
    55   32   52 1
    56   33   34 1
    57   33   53 1
@<TRIPOS>MOLECULE
ZINC15138957
   45    45     0     0     0
SMALL
USER_CHARGES

@<TRIPOS>ATOM
      1 C1         -0.0225    1.8097    0.0120 C.3       1 <0>        -0.1213
      2 S1          0.0021   -0.0041    0.0020 S.3       1 <0>        -0.2589
      3 C2         -1.7518   -0.4668    0.0163 C.3       1 <0>        -0.0798
      4 C3         -1.8771   -1.9917    0.0093 C.3       1 <0>        -0.1201
      5 C4         -3.3564   -2.3820    0.0213 C.3       1 <0>         0.1635
      6 C5         -3.4823   -3.8780   -0.1094 C.2       1 <0>         0.5022
      7 O1         -3.6817   -4.5581    0.8749 O.2       1 <0>        -0.4929
      8 N1         -3.3732   -4.4603   -1.3200 N.am      1 <0>        -0.7323
      9 C6         -3.4955   -5.9146   -1.4470 C.3       1 <0>         0.1114
     10 C7         -3.3338   -6.3137   -2.9151 C.3       1 <0>         0.1060
     11 N2         -3.4561   -7.7681   -3.0421 N.pl3     1 <0>        -0.7268
     12 C8         -3.3431   -8.3715   -4.2967 C.ar      1 <0>         0.2663
     13 C9         -3.1089   -7.5947   -5.4243 C.ar      1 <0>        -0.1986
     14 C10        -2.9971   -8.1946   -6.6632 C.ar      1 <0>        -0.0028
     15 C11        -3.1181   -9.5670   -6.7820 C.ar      1 <0>        -0.1108
     16 C12        -3.3513  -10.3433   -5.6616 C.ar      1 <0>        -0.0039
     17 C13        -3.4589   -9.7504   -4.4190 C.ar      1 <0>        -0.1933
     18 N3         -2.9983  -10.2064   -8.1114 N.pl3     1 <0>         0.0439
     19 O2         -2.7949   -9.5290   -9.0919 O.2       1 <0>        -0.1723
     20 O3         -3.1039  -11.4061   -8.2169 O.3       1 <0>        -0.1719
     21 N4         -3.9655   -1.9489    1.2813 N.am      1 <0>        -0.7367
     22 C14        -3.4952   -2.4188    2.4537 C.2       1 <0>         0.7107
     23 O4         -2.5654   -3.2023    2.4656 O.2       1 <0>        -0.5622
     24 N5         -4.0555   -2.0204    3.6129 N.am      1 <0>        -0.8683
     25 H1          1.0001    2.1870    0.0043 H         1 <0>         0.1035
     26 H2         -0.5497    2.1708   -0.8711 H         1 <0>         0.0767
     27 H3         -0.5327    2.1613    0.9088 H         1 <0>         0.0760
     28 H4         -2.2257   -0.0675    0.9130 H         1 <0>         0.0817
     29 H5         -2.2427   -0.0579   -0.8669 H         1 <0>         0.0811
     30 H6         -1.4032   -2.3910   -0.8874 H         1 <0>         0.0850
     31 H7         -1.3862   -2.4006    0.8924 H         1 <0>         0.1082
     32 H8         -3.8661   -1.9002   -0.8131 H         1 <0>         0.1133
     33 H9         -3.2136   -3.9164   -2.1071 H         1 <0>         0.4017
     34 H10        -2.7208   -6.3978   -0.8516 H         1 <0>         0.0771
     35 H11        -4.4766   -6.2292   -1.0909 H         1 <0>         0.0754
     36 H12        -4.1085   -5.8306   -3.5105 H         1 <0>         0.0756
     37 H13        -2.3527   -5.9992   -3.2712 H         1 <0>         0.0766
     38 H14        -3.6157   -8.3120   -2.2550 H         1 <0>         0.4106
     39 H15        -3.0146   -6.5227   -5.3322 H         1 <0>         0.1437
     40 H16        -2.8154   -7.5912   -7.5402 H         1 <0>         0.1525
     41 H17        -3.4457  -11.4148   -5.7580 H         1 <0>         0.1531
     42 H18        -3.6368  -10.3576   -3.5438 H         1 <0>         0.1452
     43 H19        -4.7072   -1.3239    1.2718 H         1 <0>         0.4015
     44 H20        -4.7973   -1.3954    3.6034 H         1 <0>         0.3943
     45 H21        -3.7171   -2.3586    4.4567 H         1 <0>         0.4162
@<TRIPOS>BOND
     1    1    2 1
     2    1   25 1
     3    1   26 1
     4    1   27 1
     5    2    3 1
     6    3    4 1
     7    3   28 1
     8    3   29 1
     9    4    5 1
    10    4   30 1
    11    4   31 1
    12    5    6 1
    13    5   21 1
    14    5   32 1
    15    6    7 2
    16    6    8 am
    17    8    9 1
    18    8   33 1
    19    9   10 1
    20    9   34 1
    21    9   35 1
    22   10   11 1
    23   10   36 1
    24   10   37 1
    25   11   12 1
    26   11   38 1
    27   12   17 ar
    28   12   13 ar
    29   13   14 ar
    30   13   39 1
    31   14   15 ar
    32   14   40 1
    33   15   16 ar
    34   15   18 1
    35   16   17 ar
    36   16   41 1
    37   17   42 1
    38   18   19 2
    39   18   20 1
    40   21   22 am
    41   21   43 1
    42   22   23 2
    43   22   24 am
    44   24   44 1
    45   24   45 1
@<TRIPOS>MOLECULE
ZINC67251533
   65    66     0     0     0
SMALL
USER_CHARGES

@<TRIPOS>ATOM
      1 C1         -0.0187    1.5258    0.0104 C.3       1 <0>        -0.1560
      2 C2          0.0021   -0.0041    0.0020 C.3       1 <0>        -0.1107
      3 H1          0.5122   -0.3562   -0.8946 H         1 <0>         0.0944
      4 C3         -1.4343   -0.5350    0.0151 C.3       1 <0>        -0.1344
      5 C4         -1.4020   -2.0645    0.0857 C.3       1 <0>        -0.1154
      6 H2         -2.4205   -2.4474    0.1515 H         1 <0>         0.1312
      7 C5         -0.6129   -2.4960    1.3237 C.3       1 <0>        -0.0054
      8 N1          0.7584   -1.9796    1.2388 N.4       1 <0>        -0.3986
      9 C6          0.7401   -0.5119    1.2425 C.3       1 <0>        -0.0242
     10 C7          1.5335   -2.4611    2.3901 C.3       1 <0>        -0.0361
     11 C8          2.9931   -2.0279    2.2393 C.3       1 <0>         0.0007
     12 H3          3.0559   -0.9406    2.2837 H         1 <0>         0.1662
     13 C9          3.8245   -2.6335    3.3720 C.3       1 <0>        -0.1865
     14 N2          3.5118   -2.4959    0.9470 N.4       1 <0>        -0.5227
     15 C10         4.8726   -1.9792    0.7494 C.3       1 <0>         0.0438
     16 C11         5.4047   -2.4593   -0.5763 C.ar      1 <0>        -0.1028
     17 C12         6.0908   -3.6570   -0.6507 C.ar      1 <0>        -0.2106
     18 C13         6.5824   -4.1021   -1.8685 C.ar      1 <0>         0.1633
     19 C14         6.3840   -3.3424   -3.0153 C.ar      1 <0>         0.0694
     20 C15         5.6932   -2.1390   -2.9363 C.ar      1 <0>         0.1618
     21 C16         5.2004   -1.7036   -1.7155 C.ar      1 <0>        -0.2170
     22 O1          5.4965   -1.3921   -4.0556 O.3       1 <0>        -0.2869
     23 C17         4.7781   -0.1667   -3.8998 C.3       1 <0>         0.0213
     24 O2          6.8653   -3.7756   -4.2124 O.3       1 <0>        -0.2806
     25 C18         6.0008   -4.5962   -5.0006 C.3       1 <0>         0.0495
     26 C19         6.6987   -4.9764   -6.2809 C.2       1 <0>         0.5168
     27 O3          7.8255   -4.5834   -6.4971 O.2       1 <0>        -0.5087
     28 N3          6.0708   -5.7533   -7.1857 N.am      1 <0>        -0.8493
     29 O4          7.2581   -5.2801   -1.9406 O.3       1 <0>        -0.2870
     30 C20         7.4249   -6.0079   -0.7221 C.3       1 <0>         0.0198
     31 C21        -0.7276   -2.6198   -1.1704 C.3       1 <0>        -0.1718
     32 H4          1.0039    1.9031    0.0027 H         1 <0>         0.0687
     33 H5         -0.5459    1.8868   -0.8726 H         1 <0>         0.0857
     34 H6         -0.5289    1.8773    0.9072 H         1 <0>         0.0735
     35 H7         -1.9606   -0.1411    0.8845 H         1 <0>         0.0906
     36 H8         -1.9466   -0.2229   -0.8949 H         1 <0>         0.1036
     37 H9         -1.0951   -2.1001    2.2175 H         1 <0>         0.1440
     38 H10        -0.5882   -3.5844    1.3771 H         1 <0>         0.1396
     39 H11         1.7630   -0.1355    1.2357 H         1 <0>         0.1250
     40 H12         0.2298   -0.1583    2.1385 H         1 <0>         0.1492
     41 H13         1.1222   -2.0391    3.3070 H         1 <0>         0.1806
     42 H14         1.4801   -3.5488    2.4348 H         1 <0>         0.1605
     43 H15         4.8643   -2.3249    3.2645 H         1 <0>         0.1068
     44 H16         3.4396   -2.2863    4.3308 H         1 <0>         0.1237
     45 H17         3.7617   -3.7208    3.3275 H         1 <0>         0.0975
     46 H18         3.5303   -3.5047    0.9374 H         1 <0>         0.4370
     47 H19         4.8526   -0.8894    0.7597 H         1 <0>         0.1495
     48 H20         5.5176   -2.3383    1.5514 H         1 <0>         0.1560
     49 H21         6.2446   -4.2467    0.2409 H         1 <0>         0.1466
     50 H22         4.6596   -0.7707   -1.6540 H         1 <0>         0.1427
     51 H23         3.7825   -0.3764   -3.5089 H         1 <0>         0.0542
     52 H24         5.3120    0.4817   -3.2051 H         1 <0>         0.0644
     53 H25         4.6919    0.3294   -4.8666 H         1 <0>         0.1168
     54 H26         5.7478   -5.4980   -4.4430 H         1 <0>         0.0871
     55 H27         5.0895   -4.0453   -5.2333 H         1 <0>         0.0862
     56 H28         5.1696   -6.0676   -7.0128 H         1 <0>         0.4018
     57 H29         6.5200   -5.9980   -8.0098 H         1 <0>         0.4144
     58 H30         7.9760   -5.3974   -0.0068 H         1 <0>         0.0651
     59 H31         6.4467   -6.2560   -0.3103 H         1 <0>         0.0578
     60 H32         7.9792   -6.9253   -0.9199 H         1 <0>         0.1174
     61 H33         0.2912   -2.2378   -1.2348 H         1 <0>         0.0400
     62 H34        -0.7050   -3.7084   -1.1195 H         1 <0>         0.0768
     63 H35        -1.2886   -2.3088   -2.0517 H         1 <0>         0.0939
     64 H36         2.9147   -2.1635    0.2046 H         1 <0>         0.4086
     65 H37         1.1878   -2.3068    0.3863 H         1 <0>         0.4015
@<TRIPOS>BOND
     1    1    2 1
     2    1   32 1
     3    1   33 1
     4    1   34 1
     5    2    3 1
     6    2    9 1
     7    2    4 1
     8    4    5 1
     9    4   35 1
    10    4   36 1
    11    5    6 1
    12    5    7 1
    13    5   31 1
    14    7    8 1
    15    7   37 1
    16    7   38 1
    17    8    9 1
    18    8   10 1
    19    8   65 1
    20    9   39 1
    21    9   40 1
    22   10   11 1
    23   10   41 1
    24   10   42 1
    25   11   12 1
    26   11   13 1
    27   11   14 1
    28   13   43 1
    29   13   44 1
    30   13   45 1
    31   14   15 1
    32   14   46 1
    33   14   64 1
    34   15   16 1
    35   15   47 1
    36   15   48 1
    37   16   21 ar
    38   16   17 ar
    39   17   18 ar
    40   17   49 1
    41   18   19 ar
    42   18   29 1
    43   19   20 ar
    44   19   24 1
    45   20   21 ar
    46   20   22 1
    47   21   50 1
    48   22   23 1
    49   23   51 1
    50   23   52 1
    51   23   53 1
    52   24   25 1
    53   25   26 1
    54   25   54 1
    55   25   55 1
    56   26   27 2
    57   26   28 am
    58   28   56 1
    59   28   57 1
    60   29   30 1
    61   30   58 1
    62   30   59 1
    63   30   60 1
    64   31   61 1
    65   31   62 1
    66   31   63 1
@<TRIPOS>MOLECULE
ZINC06759397
   52    52     0     0     0
SMALL
USER_CHARGES
3-[4-(2-amino-3-methyl-butanoyl)amino-3-(4-chlorophenyl)-butanoyl]aminopropanoic acid
@<TRIPOS>ATOM
      1 C1         -0.0127    1.0858    0.0080 C.3       1 <0>        -0.1679
      2 C2         -0.7288    1.5792    1.2668 C.3       1 <0>        -0.1049
      3 H1         -0.2017    1.2182    2.1499 H         1 <0>         0.1027
      4 C3         -0.7496    3.1091    1.2752 C.3       1 <0>        -0.1681
      5 C4         -2.1642    1.0497    1.2777 C.3       1 <0>         0.0123
      6 H2         -2.6914    1.4107    0.3946 H         1 <0>         0.1625
      7 C5         -2.1438   -0.4572    1.2694 C.2       1 <0>         0.5016
      8 O1         -2.3081   -1.0716    2.3021 O.2       1 <0>        -0.5259
      9 N1         -1.9430   -1.1221    0.1144 N.am      1 <0>        -0.6937
     10 C6         -1.9231   -2.5869    0.1063 C.3       1 <0>         0.1196
     11 C7         -1.6793   -3.0858   -1.3194 C.3       1 <0>        -0.0445
     12 H3         -2.4270   -2.6576   -1.9870 H         1 <0>         0.1009
     13 C8         -1.7823   -4.6120   -1.3502 C.3       1 <0>        -0.1357
     14 C9         -1.6644   -5.0948   -2.7729 C.2       1 <0>         0.5048
     15 O2         -1.5130   -4.2968   -3.6735 O.2       1 <0>        -0.5356
     16 N2         -1.7274   -6.4134   -3.0445 N.am      1 <0>        -0.7248
     17 C10        -1.6128   -6.8828   -4.4275 C.3       1 <0>         0.1373
     18 C11        -1.7158   -8.4090   -4.4584 C.3       1 <0>        -0.1709
     19 C12        -1.5979   -8.8918   -5.8811 C.2       1 <0>         0.4630
     20 O3         -1.4470   -8.0967   -6.7783 O.co2     1 <0>        -0.6357
     21 C13        -0.3040   -2.6660   -1.7702 C.ar      1 <0>        -0.0759
     22 C14         0.8111   -3.0857   -1.0690 C.ar      1 <0>        -0.1064
     23 C15         2.0730   -2.7056   -1.4853 C.ar      1 <0>        -0.1101
     24 C16         2.2195   -1.8956   -2.5974 C.ar      1 <0>        -0.0321
     25 C17         1.1029   -1.4712   -3.2953 C.ar      1 <0>        -0.1084
     26 C18        -0.1582   -1.8566   -2.8814 C.ar      1 <0>        -0.0749
     27 Cl1         3.8038   -1.4115   -3.1164 Cl        1 <0>        -0.0684
     28 H4          0.0021   -0.0041    0.0020 H         1 <0>         0.0760
     29 H5          1.0099    1.4631    0.0003 H         1 <0>         0.0869
     30 H6         -0.5399    1.4469   -0.8751 H         1 <0>         0.0731
     31 H7         -1.2768    3.4701    0.3922 H         1 <0>         0.0765
     32 H8         -1.2598    3.4606    2.1720 H         1 <0>         0.0548
     33 H9          0.2730    3.4864    1.2675 H         1 <0>         0.0896
     34 H10        -1.8116   -0.6307   -0.7116 H         1 <0>         0.4123
     35 H11        -1.1247   -2.9430    0.7574 H         1 <0>         0.0858
     36 H12        -2.8804   -2.9652    0.4649 H         1 <0>         0.0879
     37 H13        -0.9788   -5.0426   -0.7527 H         1 <0>         0.0985
     38 H14        -2.7445   -4.9196   -0.9407 H         1 <0>         0.1018
     39 H15        -1.8485   -7.0517   -2.3242 H         1 <0>         0.3966
     40 H16        -2.4163   -6.4522   -5.0251 H         1 <0>         0.0704
     41 H17        -0.6506   -6.5752   -4.8370 H         1 <0>         0.0700
     42 H18        -0.9123   -8.8395   -3.8608 H         1 <0>         0.0702
     43 H19        -2.6780   -8.7165   -4.0489 H         1 <0>         0.0703
     44 H20         0.6963   -3.7144   -0.1984 H         1 <0>         0.1274
     45 H21         2.9443   -3.0372   -0.9401 H         1 <0>         0.1318
     46 H22         1.2166   -0.8386   -4.1633 H         1 <0>         0.1331
     47 H23        -1.0300   -1.5251   -3.4260 H         1 <0>         0.1318
     48 H24        -2.3819    1.2016    3.3192 H         1 <0>         0.4438
     49 H25        -2.9356    2.5289    2.4840 H         1 <0>         0.4418
     50 O4         -1.6606  -10.2050   -6.1515 O.co2     1 <0>        -0.7663
     51 N3         -2.8742    1.5121    2.4832 N.4       1 <0>        -0.6297
     52 H26        -3.8228    1.1192    2.4878 H         1 <0>         0.4447
@<TRIPOS>BOND
     1    1    2 1
     2    1   28 1
     3    1   29 1
     4    1   30 1
     5    2    3 1
     6    2    4 1
     7    2    5 1
     8    4   31 1
     9    4   32 1
    10    4   33 1
    11    5    6 1
    12    5    7 1
    13    5   51 1
    14    7    8 2
    15    7    9 am
    16    9   10 1
    17    9   34 1
    18   10   11 1
    19   10   35 1
    20   10   36 1
    21   11   12 1
    22   11   13 1
    23   11   21 1
    24   13   14 1
    25   13   37 1
    26   13   38 1
    27   14   15 2
    28   14   16 am
    29   16   17 1
    30   16   39 1
    31   17   18 1
    32   17   40 1
    33   17   41 1
    34   18   19 1
    35   18   42 1
    36   18   43 1
    37   19   20 2
    38   19   50 1
    39   21   26 ar
    40   21   22 ar
    41   22   23 ar
    42   22   44 1
    43   23   24 ar
    44   23   45 1
    45   24   25 ar
    46   24   27 1
    47   25   26 ar
    48   25   46 1
    49   26   47 1
    50   48   51 1
    51   49   51 1
    52   51   52 1
@<TRIPOS>MOLECULE
ZINC20527470
   55    57     0     0     0
SMALL
USER_CHARGES
2-[[4-amino-5-[(N'E)-N'-[(2-hydroxy-5-methoxy-phenyl)methylene]hydrazino]-1,2,4-triazol-3-yl]sulfanyl]-N-[(4-methoxyphenyl)methyl]acetamide
@<TRIPOS>ATOM
      1 C1         -2.2321    4.1612    5.1743 C.3       1 <0>         0.0223
      2 O1         -2.6493    2.9025    4.6418 O.3       1 <0>        -0.3161
      3 C2         -2.0129    2.4640    3.5240 C.ar      1 <0>         0.1379
      4 C3         -2.3676    1.2501    2.9535 C.ar      1 <0>        -0.1539
      5 C4         -1.7195    0.8068    1.8169 C.ar      1 <0>        -0.0582
      6 C5         -0.7181    1.5718    1.2479 C.ar      1 <0>        -0.1499
      7 C6         -0.3589    2.7793    1.8178 C.ar      1 <0>        -0.0574
      8 C7         -1.0078    3.2297    2.9511 C.ar      1 <0>        -0.2108
      9 C8         -0.0127    1.0858    0.0080 C.3       1 <0>         0.1694
     10 N1         -0.7213    1.5711   -1.1789 N.am      1 <0>        -0.7293
     11 C9         -0.2681    1.2584   -2.4090 C.2       1 <0>         0.5366
     12 O2          0.7262    0.5752   -2.5335 O.2       1 <0>        -0.5285
     13 C10        -0.9970    1.7576   -3.6299 C.3       1 <0>        -0.1437
     14 S1         -0.1479    1.1726   -5.1224 S.3       1 <0>         0.0684
     15 C11        -1.1084    1.8308   -6.4449 C.2       1 <0>         0.1723
     16 N2         -2.1880    2.5656   -6.3223 N.2       1 <0>        -0.3078
     17 N3         -2.6438    2.8832   -7.6085 N.2       1 <0>        -0.3079
     18 C12        -1.8330    2.3255   -8.4747 C.2       1 <0>         0.4891
     19 N4         -0.8627    1.6604   -7.7778 N.pl3     1 <0>        -0.2642
     20 N5          0.1711    0.9506   -8.3193 N.3       1 <0>        -0.7784
     21 N6         -1.9410    2.3970   -9.8560 N.pl3     1 <0>        -0.5659
     22 N7         -2.9912    3.1172  -10.4401 N.2       1 <0>        -0.1566
     23 C13        -3.0922    3.1841  -11.7332 C.2       1 <0>         0.0855
     24 C14        -4.1969    3.9416  -12.3477 C.ar      1 <0>        -0.0572
     25 C15        -4.3088    4.0158  -13.7380 C.ar      1 <0>        -0.0844
     26 C16        -5.3488    4.7284  -14.3079 C.ar      1 <0>         0.0788
     27 C17        -6.2801    5.3690  -13.5012 C.ar      1 <0>        -0.1488
     28 C18        -6.1758    5.3000  -12.1246 C.ar      1 <0>        -0.1835
     29 C19        -5.1434    4.5861  -11.5401 C.ar      1 <0>         0.1622
     30 O3         -5.0452    4.5150  -10.1864 O.3       1 <0>        -0.4701
     31 O4         -5.4596    4.8013  -15.6612 O.3       1 <0>        -0.3179
     32 C20        -6.5571    5.5535  -16.1827 C.3       1 <0>         0.0245
     33 H1         -2.8244    4.3942    6.0714 H         1 <0>         0.1040
     34 H2         -2.3845    4.9471    4.4199 H         1 <0>         0.0582
     35 H3         -1.1662    4.1111    5.4415 H         1 <0>         0.0580
     36 H4         -3.1495    0.6521    3.3978 H         1 <0>         0.1336
     37 H5         -1.9954   -0.1379    1.3722 H         1 <0>         0.1322
     38 H6          0.4269    3.3727    1.3742 H         1 <0>         0.1275
     39 H7         -0.7300    4.1750    3.3933 H         1 <0>         0.1307
     40 H8          1.0193    1.4666    0.0002 H         1 <0>         0.0771
     41 H9          0.0023   -0.0141    0.0019 H         1 <0>         0.0780
     42 H10        -1.6232    2.1907   -1.0660 H         1 <0>         0.4281
     43 H11        -2.0290    1.3768   -3.6221 H         1 <0>         0.1286
     44 H12        -1.0120    2.8575   -3.6239 H         1 <0>         0.1282
     45 H13         0.2753    0.8776   -9.4119 H         1 <0>         0.4362
     46 H14         0.8994    0.4520   -7.6628 H         1 <0>         0.4488
     47 H15        -1.2021    1.8883  -10.4926 H         1 <0>         0.4040
     48 H16        -2.3532    2.6754  -12.3696 H         1 <0>         0.1235
     49 H17        -3.5851    3.5183  -14.3666 H         1 <0>         0.1412
     50 H18        -7.0901    5.9235  -13.9515 H         1 <0>         0.1314
     51 H19        -6.9039    5.8004  -11.5034 H         1 <0>         0.1334
     52 H20        -5.7889    5.0214   -9.5536 H         1 <0>         0.4279
     53 H21        -6.5277    5.5308  -17.2821 H         1 <0>         0.1019
     54 H22        -6.4858    6.5948  -15.8354 H         1 <0>         0.0554
     55 H23        -7.5025    5.1139  -15.8320 H         1 <0>         0.0554
@<TRIPOS>BOND
     1    1    2 1
     2    1   33 1
     3    1   34 1
     4    1   35 1
     5    2    3 1
     6    3    8 ar
     7    3    4 ar
     8    4    5 ar
     9    4   36 1
    10    5    6 ar
    11    5   37 1
    12    6    7 ar
    13    6    9 1
    14    7    8 ar
    15    7   38 1
    16    8   39 1
    17    9   10 1
    18    9   40 1
    19    9   41 1
    20   10   11 am
    21   10   42 1
    22   11   12 2
    23   11   13 1
    24   13   14 1
    25   13   43 1
    26   13   44 1
    27   14   15 1
    28   15   19 1
    29   15   16 2
    30   16   17 1
    31   17   18 2
    32   18   19 1
    33   18   21 1
    34   19   20 1
    35   20   45 1
    36   20   46 1
    37   21   22 1
    38   21   47 1
    39   22   23 2
    40   23   24 1
    41   23   48 1
    42   24   29 ar
    43   24   25 ar
    44   25   26 ar
    45   25   49 1
    46   26   27 ar
    47   26   31 1
    48   27   28 ar
    49   27   50 1
    50   28   29 ar
    51   28   51 1
    52   29   30 1
    53   30   52 1
    54   31   32 1
    55   32   53 1
    56   32   54 1
    57   32   55 1
@<TRIPOS>MOLECULE
ZINC39680058
   65    68     0     0     0
SMALL
USER_CHARGES

@<TRIPOS>ATOM
      1 C1          0.0068    1.3965   -0.2437 C.3       1 <0>        -0.1685
      2 C2         -0.1312   -0.1036    0.0239 C.3       1 <0>        -0.1172
      3 C3          0.2584   -0.8838   -1.2332 C.3       1 <0>        -0.1490
      4 C4          0.7906   -0.5026    1.1780 C.3       1 <0>        -0.0125
      5 N1          0.1174   -0.2375    2.4565 N.4       1 <0>        -0.3992
      6 C5          0.9848   -0.6401    3.5952 C.3       1 <0>         0.2037
      7 H1          2.0297   -0.4133    3.3836 H         1 <0>         0.1355
      8 N2          0.4784    0.2028    4.7097 N.3       1 <0>        -0.4644
      9 N3          0.1597    1.4881    4.0821 N.3       1 <0>        -0.4654
     10 C6         -0.0755    1.2184    2.6492 C.3       1 <0>         0.1433
     11 H2          0.6398    1.7736    2.0423 H         1 <0>         0.1703
     12 S1         -1.7692    1.6861    2.1985 S.3       1 <0>         0.0085
     13 C7         -2.8074    0.7116    3.3224 C.3       1 <0>        -0.1571
     14 C8         -4.2594    1.0095    3.0503 C.2       1 <0>         0.5331
     15 O1         -4.5639    1.8013    2.1835 O.2       1 <0>        -0.5319
     16 N4         -5.2196    0.3961    3.7702 N.am      1 <0>        -0.6712
     17 C9         -6.6311    0.6858    3.5057 C.3       1 <0>         0.0851
     18 H3         -6.7729    0.8583    2.4388 H         1 <0>         0.0848
     19 C10        -7.4872   -0.5025    3.9483 C.3       1 <0>        -0.0419
     20 C11        -7.1601   -1.7021    3.0970 C.2       1 <0>        -0.1539
     21 C12        -6.0696   -2.6553    3.3167 C.ar      1 <0>        -0.0935
     22 C13        -5.0658   -2.7763    4.2791 C.ar      1 <0>        -0.0724
     23 C14        -4.1747   -3.8097    4.2039 C.ar      1 <0>        -0.1529
     24 C15        -4.2594   -4.7402    3.1776 C.ar      1 <0>        -0.1069
     25 C16        -5.2422   -4.6398    2.2171 C.ar      1 <0>        -0.1299
     26 C17        -6.1600   -3.5963    2.2745 C.ar      1 <0>         0.0952
     27 N5         -7.2294   -3.2300    1.4883 N.pl3     1 <0>        -0.5959
     28 C18        -7.8162   -2.1032    1.9967 C.2       1 <0>         0.0512
     29 C19        -7.0438    1.9156    4.2726 C.2       1 <0>         0.4893
     30 O2         -6.2339    2.4963    4.9750 O.co2     1 <0>        -0.6842
     31 O3         -8.1875    2.3299    4.1907 O.co2     1 <0>        -0.6888
     32 C20         0.8111   -2.1043    3.9067 C.ar      1 <0>        -0.1528
     33 C21         0.3147   -2.9620    2.9432 C.ar      1 <0>        -0.1040
     34 C22         0.1553   -4.3050    3.2287 C.ar      1 <0>        -0.1049
     35 C23         0.4921   -4.7920    4.4782 C.ar      1 <0>        -0.0614
     36 C24         0.9889   -3.9366    5.4428 C.ar      1 <0>        -0.1360
     37 C25         1.1540   -2.5918    5.1563 C.ar      1 <0>         0.1440
     38 F1          1.6441   -1.7553    6.0971 F         1 <0>        -0.1266
     39 H4          1.0591    1.6462   -0.3790 H         1 <0>         0.0670
     40 H5         -0.5473    1.6572   -1.1455 H         1 <0>         0.0878
     41 H6         -0.3932    1.9549    0.6026 H         1 <0>         0.0638
     42 H7         -1.1638   -0.3320    0.2879 H         1 <0>         0.1025
     43 H8          1.2909   -0.6553   -1.4973 H         1 <0>         0.0667
     44 H9          0.1601   -1.9525   -1.0426 H         1 <0>         0.0649
     45 H10        -0.3983   -0.5995   -2.0554 H         1 <0>         0.0805
     46 H11         1.0258   -1.5644    1.1046 H         1 <0>         0.1396
     47 H12         1.7115    0.0781    1.1249 H         1 <0>         0.1334
     48 H13         1.1799    0.3144    5.4263 H         1 <0>         0.3851
     49 H14         0.9126    2.1480    4.2071 H         1 <0>         0.3575
     50 H15        -2.6183   -0.3500    3.1630 H         1 <0>         0.0975
     51 H16        -2.5701    0.9721    4.3539 H         1 <0>         0.1365
     52 H17        -4.9761   -0.2371    4.4634 H         1 <0>         0.3898
     53 H18        -7.2789   -0.7310    4.9935 H         1 <0>         0.0700
     54 H19        -8.5421   -0.2528    3.8343 H         1 <0>         0.0960
     55 H20        -4.9934   -2.0555    5.0802 H         1 <0>         0.1165
     56 H21        -3.3983   -3.9029    4.9488 H         1 <0>         0.1159
     57 H22        -3.5474   -5.5510    3.1312 H         1 <0>         0.1187
     58 H23        -5.2995   -5.3687    1.4223 H         1 <0>         0.1159
     59 H24        -8.6779   -1.6083    1.5738 H         1 <0>         0.1729
     60 H25        -7.5252   -3.7026    0.6945 H         1 <0>         0.4147
     61 H26         0.0510   -2.5827    1.9670 H         1 <0>         0.1294
     62 H27        -0.2330   -4.9744    2.4753 H         1 <0>         0.1452
     63 H28         0.3665   -5.8414    4.7003 H         1 <0>         0.1478
     64 H29         1.2516   -4.3171    6.4188 H         1 <0>         0.1512
     65 H30        -0.7680   -0.7197    2.4964 H         1 <0>         0.4314
@<TRIPOS>BOND
     1    1    2 1
     2    1   39 1
     3    1   40 1
     4    1   41 1
     5    2    3 1
     6    2    4 1
     7    2   42 1
     8    3   43 1
     9    3   44 1
    10    3   45 1
    11    4    5 1
    12    4   46 1
    13    4   47 1
    14    5   10 1
    15    5    6 1
    16    5   65 1
    17    6    7 1
    18    6    8 1
    19    6   32 1
    20    8    9 1
    21    8   48 1
    22    9   10 1
    23    9   49 1
    24   10   11 1
    25   10   12 1
    26   12   13 1
    27   13   14 1
    28   13   50 1
    29   13   51 1
    30   14   15 2
    31   14   16 am
    32   16   17 1
    33   16   52 1
    34   17   18 1
    35   17   19 1
    36   17   29 1
    37   19   53 1
    38   19   54 1
    39   19   20 1
    40   20   21 1
    41   20   28 2
    42   21   22 ar
    43   21   26 ar
    44   22   23 ar
    45   22   55 1
    46   23   24 ar
    47   23   56 1
    48   24   25 ar
    49   24   57 1
    50   25   26 ar
    51   25   58 1
    52   26   27 1
    53   27   60 1
    54   27   28 1
    55   28   59 1
    56   29   30 2
    57   29   31 1
    58   32   37 ar
    59   32   33 ar
    60   33   34 ar
    61   33   61 1
    62   34   35 ar
    63   34   62 1
    64   35   36 ar
    65   35   63 1
    66   36   37 ar
    67   36   64 1
    68   37   38 1
@<TRIPOS>MOLECULE
ZINC53123674
   66    66     0     0     0
SMALL
USER_CHARGES

@<TRIPOS>ATOM
      1 C1         -1.1621    1.7282    5.6528 C.3       1 <0>        -0.1548
      2 C2         -0.4858    1.8834    4.2892 C.3       1 <0>        -0.1213
      3 C3          0.2720    0.5991    3.9467 C.3       1 <0>        -0.1400
      4 C4          0.9484    0.7544    2.5831 C.3       1 <0>         0.1006
      5 N1          1.6740   -0.4753    2.2551 N.am      1 <0>        -0.5359
      6 C5          2.9867   -0.6180    2.6403 C.2       1 <0>         0.5067
      7 C6          3.6587   -1.7812    2.3251 C.2       1 <0>        -0.1716
      8 C7          2.9774   -2.7888    1.6168 C.2       1 <0>         0.5748
      9 O1          3.5472   -3.8268    1.3256 O.2       1 <0>        -0.5157
     10 N2          1.6912   -2.5988    1.2630 N.am      1 <0>        -0.6583
     11 H1          1.2207   -3.2927    0.7751 H         1 <0>         0.4374
     12 C8          1.0507   -1.4606    1.5837 C.2       1 <0>         0.7096
     13 O2         -0.1116   -1.3173    1.2564 O.2       1 <0>        -0.5158
     14 N3          5.0059   -1.9574    2.7058 N.am      1 <0>        -0.4996
     15 C9          5.3548   -2.0945    4.1220 C.3       1 <0>         0.0857
     16 C10         5.4236   -3.5783    4.4890 C.3       1 <0>        -0.1739
     17 C11         5.9727   -1.9996    1.7655 C.2       1 <0>         0.5018
     18 O3          5.6764   -1.9777    0.5892 O.2       1 <0>        -0.5039
     19 C12         7.4207   -2.0738    2.1765 C.3       1 <0>        -0.0453
     20 N4          8.2688   -2.1086    0.9775 N.4       1 <0>        -0.5004
     21 C13         9.6803   -2.1809    1.3781 C.3       1 <0>         0.0588
     22 C14         9.9832   -1.0672    2.3824 C.3       1 <0>        -0.1780
     23 C15         9.9580   -3.5397    2.0243 C.3       1 <0>        -0.2046
     24 C16        10.5698   -2.0114    0.1449 C.3       1 <0>        -0.1285
     25 C17         9.9964   -2.8295   -1.0139 C.3       1 <0>        -0.0884
     26 C18         8.7825   -2.1045   -1.5985 C.3       1 <0>        -0.1802
     27 C19        11.0629   -2.9946   -2.0985 C.3       1 <0>        -0.1435
     28 C20         9.5704   -4.2075   -0.5036 C.3       1 <0>        -0.1685
     29 N5          3.6217    0.3865    3.3306 N.pl3     1 <0>        -0.8290
     30 H2         -0.4055    1.5387    6.4142 H         1 <0>         0.0542
     31 H3         -1.7020    2.6431    5.8968 H         1 <0>         0.0615
     32 H4         -1.8607    0.8922    5.6188 H         1 <0>         0.0577
     33 H5         -1.2424    2.0729    3.5278 H         1 <0>         0.0717
     34 H6          0.2128    2.7194    4.3232 H         1 <0>         0.0657
     35 H7          1.0286    0.4096    4.7081 H         1 <0>         0.0678
     36 H8         -0.4266   -0.2369    3.9126 H         1 <0>         0.0798
     37 H9          0.1918    0.9439    1.8217 H         1 <0>         0.1181
     38 H10         1.6470    1.5904    2.6171 H         1 <0>         0.0935
     39 H11         6.3239   -1.6299    4.3040 H         1 <0>         0.0856
     40 H12         4.5965   -1.6041    4.7322 H         1 <0>         0.0948
     41 H13         5.6832   -3.6803    5.5427 H         1 <0>         0.0801
     42 H14         4.4545   -4.0428    4.3069 H         1 <0>         0.0725
     43 H15         6.1820   -4.0687    3.8787 H         1 <0>         0.0559
     44 H16         7.6738   -1.1989    2.7753 H         1 <0>         0.1620
     45 H17         7.5857   -2.9767    2.7645 H         1 <0>         0.1605
     46 H18         8.0346   -2.9184    0.4232 H         1 <0>         0.4348
     47 H19         9.4482   -1.2609    3.3121 H         1 <0>         0.0836
     48 H20        11.0548   -1.0371    2.5794 H         1 <0>         0.1095
     49 H21         9.6624   -0.1100    1.9712 H         1 <0>         0.0814
     50 H22         9.4708   -4.3239    1.4449 H         1 <0>         0.1033
     51 H23        11.0330   -3.7187    2.0462 H         1 <0>         0.1080
     52 H24         9.5681   -3.5445    3.0422 H         1 <0>         0.0810
     53 H25        10.6048   -0.9587   -0.1359 H         1 <0>         0.0953
     54 H26        11.5770   -2.3604    0.3726 H         1 <0>         0.1151
     55 H27         8.9992   -1.0392   -1.6782 H         1 <0>         0.0764
     56 H28         8.5615   -2.5053   -2.5877 H         1 <0>         0.0885
     57 H29         7.9220   -2.2524   -0.9460 H         1 <0>         0.0456
     58 H30        11.9277   -3.5111   -1.6820 H         1 <0>         0.0662
     59 H31        10.6544   -3.5774   -2.9240 H         1 <0>         0.0686
     60 H32        11.3664   -2.0129   -2.4621 H         1 <0>         0.0659
     61 H33         8.7519   -4.0946    0.2073 H         1 <0>         0.0427
     62 H34         9.2408   -4.8199   -1.3429 H         1 <0>         0.0814
     63 H35        10.4150   -4.6898   -0.0116 H         1 <0>         0.0866
     64 H36         3.1633    1.2248    3.4982 H         1 <0>         0.4148
     65 H37         4.5284    0.2572    3.6503 H         1 <0>         0.4212
     66 H38         8.1162   -1.2728    0.4332 H         1 <0>         0.4307
@<TRIPOS>BOND
     1    1    2 1
     2    1   30 1
     3    1   31 1
     4    1   32 1
     5    2    3 1
     6    2   33 1
     7    2   34 1
     8    3    4 1
     9    3   35 1
    10    3   36 1
    11    4    5 1
    12    4   37 1
    13    4   38 1
    14    5   12 am
    15    5    6 1
    16    6    7 2
    17    6   29 1
    18    7    8 1
    19    7   14 1
    20    8    9 2
    21    8   10 am
    22   10   11 1
    23   10   12 am
    24   12   13 2
    25   14   15 1
    26   14   17 am
    27   15   16 1
    28   15   39 1
    29   15   40 1
    30   16   41 1
    31   16   42 1
    32   16   43 1
    33   17   18 2
    34   17   19 1
    35   19   20 1
    36   19   44 1
    37   19   45 1
    38   20   21 1
    39   20   46 1
    40   20   66 1
    41   21   22 1
    42   21   23 1
    43   21   24 1
    44   22   47 1
    45   22   48 1
    46   22   49 1
    47   23   50 1
    48   23   51 1
    49   23   52 1
    50   24   25 1
    51   24   53 1
    52   24   54 1
    53   25   26 1
    54   25   27 1
    55   25   28 1
    56   26   55 1
    57   26   56 1
    58   26   57 1
    59   27   58 1
    60   27   59 1
    61   27   60 1
    62   28   61 1
    63   28   62 1
    64   28   63 1
    65   29   64 1
    66   29   65 1
@<TRIPOS>MOLECULE
ZINC67391837
   52    52     0     0     0
SMALL
USER_CHARGES

@<TRIPOS>ATOM
      1 C1         -0.0187    1.5258    0.0104 C.3       1 <0>        -0.1526
      2 C2          0.0021   -0.0041    0.0020 C.3       1 <0>        -0.0976
      3 C3          0.7182   -0.4975   -1.2568 C.3       1 <0>        -0.1492
      4 C4          0.7421   -0.5109    1.2415 C.3       1 <0>        -0.1008
      5 C5         -0.0416   -0.1236    2.4973 C.3       1 <0>        -0.1326
      6 C6          0.6873   -0.6229    3.7181 C.2       1 <0>         0.5144
      7 O1          1.7308   -1.2287    3.5960 O.2       1 <0>        -0.5276
      8 N1          0.1795   -0.3960    4.9458 N.am      1 <0>        -0.5343
      9 N2          0.8571   -0.8601    6.0808 N.am      1 <0>        -0.5331
     10 C7          0.3494   -0.6333    7.3085 C.2       1 <0>         0.7129
     11 O2          0.9374   -1.0361    8.2936 O.2       1 <0>        -0.5680
     12 N3         -0.8102    0.0400    7.4443 N.am      1 <0>        -0.7401
     13 C8         -1.3622    0.2866    8.7788 C.3       1 <0>         0.1824
     14 C9         -2.6540    1.0526    8.6544 C.ar      1 <0>        -0.1097
     15 C10        -2.6385    2.4351    8.6518 C.ar      1 <0>        -0.0932
     16 C11        -3.8208    3.1424    8.5380 C.ar      1 <0>        -0.1763
     17 C12        -5.0248    2.4658    8.4257 C.ar      1 <0>         0.1099
     18 C13        -5.0403    1.0744    8.4279 C.ar      1 <0>         0.1054
     19 C14        -3.8512    0.3715    8.5375 C.ar      1 <0>        -0.1521
     20 O3         -6.2195    0.4058    8.3180 O.3       1 <0>        -0.3009
     21 C15        -6.1592   -1.0219    8.3274 C.3       1 <0>         0.0245
     22 O4         -6.1888    3.1601    8.3141 O.3       1 <0>        -0.2769
     23 C16        -6.0967    4.5862    8.3196 C.3       1 <0>         0.0371
     24 C17        -7.4759    5.1792    8.1879 C.2       1 <0>         0.5185
     25 O5         -8.4425    4.4522    8.0982 O.2       1 <0>        -0.5132
     26 N4         -7.6351    6.5174    8.1698 N.am      1 <0>        -0.8505
     27 H1          1.0039    1.9031    0.0027 H         1 <0>         0.0562
     28 H2         -0.5459    1.8868   -0.8726 H         1 <0>         0.0559
     29 H3         -0.5289    1.8773    0.9072 H         1 <0>         0.0549
     30 H4         -1.0205   -0.3814    0.0098 H         1 <0>         0.0715
     31 H5          1.7408   -0.1202   -1.2645 H         1 <0>         0.0560
     32 H6          0.7330   -1.5874   -1.2628 H         1 <0>         0.0558
     33 H7          0.1910   -0.1364   -2.1398 H         1 <0>         0.0560
     34 H8          0.8346   -1.5958    1.1912 H         1 <0>         0.0730
     35 H9          1.7350   -0.0630    1.2804 H         1 <0>         0.0732
     36 H10        -0.1341    0.9613    2.5476 H         1 <0>         0.1021
     37 H11        -1.0345   -0.5716    2.4584 H         1 <0>         0.1004
     38 H12        -0.6551    0.0886    5.0436 H         1 <0>         0.4188
     39 H13         1.6917   -1.3447    5.9831 H         1 <0>         0.4441
     40 H14        -1.2794    0.3613    6.6585 H         1 <0>         0.3923
     41 H15        -1.5505   -0.6652    9.2756 H         1 <0>         0.0798
     42 H16        -0.6501    0.8676    9.3648 H         1 <0>         0.0824
     43 H17        -1.7007    2.9636    8.7393 H         1 <0>         0.1322
     44 H18        -3.8060    4.2223    8.5369 H         1 <0>         0.1384
     45 H19        -3.8601   -0.7085    8.5356 H         1 <0>         0.1397
     46 H20        -5.5488   -1.3652    7.4921 H         1 <0>         0.0554
     47 H21        -5.7166   -1.3606    9.2642 H         1 <0>         0.0569
     48 H22        -7.1660   -1.4287    8.2331 H         1 <0>         0.1037
     49 H23        -5.6466    4.9176    9.2553 H         1 <0>         0.0958
     50 H24        -5.4791    4.9136    7.4833 H         1 <0>         0.0954
     51 H25        -6.8620    7.0988    8.2415 H         1 <0>         0.4034
     52 H26        -8.5228    6.8990    8.0850 H         1 <0>         0.4105
@<TRIPOS>BOND
     1    1    2 1
     2    1   27 1
     3    1   28 1
     4    1   29 1
     5    2    3 1
     6    2    4 1
     7    2   30 1
     8    3   31 1
     9    3   32 1
    10    3   33 1
    11    4    5 1
    12    4   34 1
    13    4   35 1
    14    5    6 1
    15    5   36 1
    16    5   37 1
    17    6    7 2
    18    6    8 am
    19    8    9 1
    20    8   38 1
    21    9   10 am
    22    9   39 1
    23   10   11 2
    24   10   12 am
    25   12   13 1
    26   12   40 1
    27   13   14 1
    28   13   41 1
    29   13   42 1
    30   14   19 ar
    31   14   15 ar
    32   15   16 ar
    33   15   43 1
    34   16   17 ar
    35   16   44 1
    36   17   18 ar
    37   17   22 1
    38   18   19 ar
    39   18   20 1
    40   19   45 1
    41   20   21 1
    42   21   46 1
    43   21   47 1
    44   21   48 1
    45   22   23 1
    46   23   24 1
    47   23   49 1
    48   23   50 1
    49   24   25 2
    50   24   26 am
    51   26   51 1
    52   26   52 1
@<TRIPOS>MOLECULE
ZINC06547010
   60    62     0     0     0
SMALL
USER_CHARGES
ethyl 2-[2-[(4-amino-3-carbamoyl-isothiazol-5-yl)carbonyl-(m-tolyl)amino]-2-(4-fluorophenyl)-acetyl]aminoacetate
@<TRIPOS>ATOM
      1 C1          7.8823    5.0228   -5.2658 C.3       1 <0>        -0.1547
      2 C2          7.1931    5.6244   -4.0394 C.3       1 <0>         0.0629
      3 O1          5.8345    5.1196   -3.9514 O.3       1 <0>        -0.3518
      4 C3          5.0885    5.5536   -2.9233 C.2       1 <0>         0.4614
      5 O2          5.5553    6.3295   -2.1234 O.2       1 <0>        -0.5034
      6 C4          3.6688    5.0730   -2.7668 C.3       1 <0>         0.1291
      7 N1          3.0737    5.6872   -1.5774 N.am      1 <0>        -0.7196
      8 C5          1.8013    5.4020   -1.2367 C.2       1 <0>         0.5193
      9 O3          1.1489    4.6368   -1.9149 O.2       1 <0>        -0.5084
     10 C6          1.1891    6.0337   -0.0131 C.3       1 <0>         0.1882
     11 H1          1.1956    7.1182   -0.1223 H         1 <0>         0.1214
     12 C7          1.9876    5.6467    1.2049 C.ar      1 <0>        -0.1228
     13 C8          1.9966    4.3332    1.6361 C.ar      1 <0>        -0.0575
     14 C9          2.7331    3.9760    2.7496 C.ar      1 <0>        -0.1500
     15 C10         3.4525    4.9364    3.4404 C.ar      1 <0>         0.1172
     16 C11         3.4381    6.2527    3.0109 C.ar      1 <0>        -0.1526
     17 C12         2.7059    6.6064    1.8935 C.ar      1 <0>        -0.0660
     18 F1          4.1676    4.5896    4.5329 F         1 <0>        -0.1355
     19 N2         -0.1911    5.5666    0.1390 N.am      1 <0>        -0.5506
     20 C13        -0.5376    4.7497    1.2198 C.ar      1 <0>         0.1222
     21 C14        -0.8471    3.4118    1.0100 C.ar      1 <0>        -0.1224
     22 C15        -1.1893    2.6080    2.0794 C.ar      1 <0>        -0.1019
     23 C16        -1.2238    3.1335    3.3583 C.ar      1 <0>        -0.1065
     24 C17        -0.9218    4.4661    3.5698 C.ar      1 <0>        -0.0694
     25 C18        -0.5736    5.2743    2.5051 C.ar      1 <0>        -0.1019
     26 C19        -0.9671    5.0360    4.9641 C.3       1 <0>        -0.1176
     27 C20        -1.1268    5.9241   -0.7627 C.2       1 <0>         0.6389
     28 O4         -0.8109    6.5733   -1.7428 O.2       1 <0>        -0.5188
     29 C21        -2.5230    5.5317   -0.5635 C.2       1 <0>        -0.3913
     30 C22        -3.6187    5.6972   -1.4129 C.2       1 <0>         0.2769
     31 C23        -4.7980    5.1887   -0.8685 C.2       1 <0>        -0.0409
     32 N3         -4.7698    4.6340    0.3230 N.2       1 <0>        -0.4525
     33 S1         -3.2773    4.7087    0.8239 S.3       1 <0>         0.4751
     34 C24        -6.0630    5.2730   -1.6213 C.2       1 <0>         0.6018
     35 O5         -6.0819    5.7878   -2.7228 O.2       1 <0>        -0.5425
     36 N4         -7.1984    4.7795   -1.0885 N.am      1 <0>        -0.8313
     37 N5         -3.5429    6.3011   -2.6609 N.pl3     1 <0>        -0.8053
     38 H2          7.3323    5.3013   -6.1647 H         1 <0>         0.0688
     39 H3          8.9022    5.4017   -5.3318 H         1 <0>         0.0831
     40 H4          7.9033    3.9368   -5.1745 H         1 <0>         0.0685
     41 H5          7.1720    6.7103   -4.1306 H         1 <0>         0.0735
     42 H6          7.7430    5.3459   -3.1404 H         1 <0>         0.0732
     43 H7          3.6622    3.9885   -2.6577 H         1 <0>         0.1141
     44 H8          3.0913    5.3530   -3.6479 H         1 <0>         0.1159
     45 H9          3.5954    6.2992   -1.0350 H         1 <0>         0.4124
     46 H10         1.4313    3.5852    1.1001 H         1 <0>         0.1384
     47 H11         2.7433    2.9491    3.0839 H         1 <0>         0.1382
     48 H12         3.9986    7.0027    3.5491 H         1 <0>         0.1411
     49 H13         2.6945    7.6330    1.5583 H         1 <0>         0.1392
     50 H14        -0.8204    3.0009    0.0116 H         1 <0>         0.1336
     51 H15        -1.4301    1.5678    1.9169 H         1 <0>         0.1333
     52 H16        -1.4914    2.5026    4.1930 H         1 <0>         0.1296
     53 H17        -0.3339    6.3141    2.6715 H         1 <0>         0.1295
     54 H18         0.0315    5.0092    5.4002 H         1 <0>         0.0729
     55 H19        -1.3185    6.0670    4.9240 H         1 <0>         0.0693
     56 H20        -1.6471    4.4439    5.5767 H         1 <0>         0.0705
     57 H21        -7.1833    4.3688   -0.2099 H         1 <0>         0.4113
     58 H22        -8.0306    4.8349   -1.5838 H         1 <0>         0.4093
     59 H23        -2.6930    6.6365   -2.9866 H         1 <0>         0.4163
     60 H24        -4.3398    6.3877   -3.2071 H         1 <0>         0.4189
@<TRIPOS>BOND
     1    1    2 1
     2    1   38 1
     3    1   39 1
     4    1   40 1
     5    2    3 1
     6    2   41 1
     7    2   42 1
     8    3    4 1
     9    4    5 2
    10    4    6 1
    11    6    7 1
    12    6   43 1
    13    6   44 1
    14    7    8 am
    15    7   45 1
    16    8    9 2
    17    8   10 1
    18   10   11 1
    19   10   12 1
    20   10   19 1
    21   12   17 ar
    22   12   13 ar
    23   13   14 ar
    24   13   46 1
    25   14   15 ar
    26   14   47 1
    27   15   16 ar
    28   15   18 1
    29   16   17 ar
    30   16   48 1
    31   17   49 1
    32   19   20 1
    33   19   27 am
    34   20   25 ar
    35   20   21 ar
    36   21   22 ar
    37   21   50 1
    38   22   23 ar
    39   22   51 1
    40   23   24 ar
    41   23   52 1
    42   24   25 ar
    43   24   26 1
    44   25   53 1
    45   26   54 1
    46   26   55 1
    47   26   56 1
    48   27   28 2
    49   27   29 1
    50   29   33 1
    51   29   30 2
    52   30   31 1
    53   30   37 1
    54   31   32 2
    55   31   34 1
    56   32   33 1
    57   34   35 2
    58   34   36 am
    59   36   57 1
    60   36   58 1
    61   37   59 1
    62   37   60 1
@<TRIPOS>MOLECULE
ZINC12711431
   67    69     0     0     0
SMALL
USER_CHARGES
4-amino-N'-[(1S)-2-(isopentylamino)-1-(4-methoxyphenyl)-2-oxo-ethyl]-N'-(m-tolyl)isothiazole-3,5-dicarboxamide
@<TRIPOS>ATOM
      1 C1          0.7813    3.5769    5.0382 C.3       1 <0>        -0.1167
      2 C2          0.8035    2.9005    3.6917 C.ar      1 <0>        -0.0712
      3 C3          0.5925    1.5367    3.6002 C.ar      1 <0>        -0.1078
      4 C4          0.6111    0.9123    2.3667 C.ar      1 <0>        -0.1048
      5 C5          0.8410    1.6493    1.2213 C.ar      1 <0>        -0.1194
      6 C6          1.0536    3.0188    1.3097 C.ar      1 <0>         0.1268
      7 C7          1.0339    3.6431    2.5505 C.ar      1 <0>        -0.0996
      8 N1          1.2862    3.7680    0.1521 N.am      1 <0>        -0.5508
      9 C8          2.6316    4.2705   -0.1373 C.3       1 <0>         0.1877
     10 H1          2.5875    5.3449   -0.3159 H         1 <0>         0.1140
     11 C9          3.5347    3.9931    1.0368 C.ar      1 <0>        -0.1458
     12 C10         3.6831    2.6999    1.5030 C.ar      1 <0>        -0.0426
     13 C11         4.5148    2.4423    2.5756 C.ar      1 <0>        -0.2032
     14 C12         5.1922    3.4840    3.1924 C.ar      1 <0>         0.1449
     15 C13         5.0372    4.7814    2.7263 C.ar      1 <0>        -0.1521
     16 C14         4.2091    5.0330    1.6496 C.ar      1 <0>        -0.0580
     17 O1          6.0059    3.2340    4.2518 O.3       1 <0>        -0.3149
     18 C15         6.1176    1.8744    4.6774 C.3       1 <0>         0.0261
     19 C16         3.1733    3.5794   -1.3620 C.2       1 <0>         0.5133
     20 O2          2.5018    2.7489   -1.9366 O.2       1 <0>        -0.5159
     21 N2          4.4041    3.8843   -1.8188 N.am      1 <0>        -0.7261
     22 C17         4.9308    3.2125   -3.0094 C.3       1 <0>         0.1200
     23 C18         6.3358    3.7373   -3.3116 C.3       1 <0>        -0.1269
     24 C19         6.8858    3.0357   -4.5550 C.3       1 <0>        -0.0928
     25 C20         6.0407    3.4176   -5.7719 C.3       1 <0>        -0.1533
     26 C21         8.3355    3.4675   -4.7850 C.3       1 <0>        -0.1478
     27 C22         0.2727    4.0277   -0.6975 C.2       1 <0>         0.6372
     28 O3          0.4912    4.6025   -1.7480 O.2       1 <0>        -0.5193
     29 C23        -1.0910    3.6186   -0.3569 C.2       1 <0>        -0.3879
     30 C24        -2.2543    3.6890   -1.1259 C.2       1 <0>         0.2748
     31 C25        -3.3709    3.1947   -0.4516 C.2       1 <0>        -0.0408
     32 N3         -3.2339    2.7441    0.7758 N.2       1 <0>        -0.4523
     33 S1         -1.7118    2.9052    1.1520 S.3       1 <0>         0.4725
     34 C26        -4.6918    3.1829   -1.1065 C.2       1 <0>         0.6021
     35 O4         -4.8113    3.6017   -2.2419 O.2       1 <0>        -0.5424
     36 N4         -5.7668    2.7081   -0.4467 N.am      1 <0>        -0.8314
     37 N5         -2.2946    4.1925   -2.4192 N.pl3     1 <0>        -0.8060
     38 H2         -0.2137    3.9805    5.2257 H         1 <0>         0.0740
     39 H3          1.0315    2.8522    5.8130 H         1 <0>         0.0683
     40 H4          1.5102    4.3873    5.0497 H         1 <0>         0.0683
     41 H5          0.4125    0.9581    4.4943 H         1 <0>         0.1277
     42 H6          0.4453   -0.1527    2.2987 H         1 <0>         0.1309
     43 H7          0.8551    1.1611    0.2581 H         1 <0>         0.1311
     44 H8          1.1941    4.7087    2.6222 H         1 <0>         0.1284
     45 H9          3.1515    1.8900    1.0257 H         1 <0>         0.1277
     46 H10         4.6340    1.4313    2.9363 H         1 <0>         0.1295
     47 H11         5.5632    5.5942    3.2051 H         1 <0>         0.1349
     48 H12         4.0881    6.0429    1.2864 H         1 <0>         0.1340
     49 H13         6.7956    1.8147    5.5287 H         1 <0>         0.1019
     50 H14         5.1351    1.5030    4.9687 H         1 <0>         0.0576
     51 H15         6.5072    1.2684    3.8594 H         1 <0>         0.0565
     52 H16         4.9413    4.5485   -1.3592 H         1 <0>         0.3998
     53 H17         4.9748    2.1381   -2.8308 H         1 <0>         0.0652
     54 H18         4.2776    3.4131   -3.8586 H         1 <0>         0.0710
     55 H19         6.2918    4.8117   -3.4902 H         1 <0>         0.0704
     56 H20         6.9890    3.5367   -2.4624 H         1 <0>         0.0692
     57 H21         6.8470    1.9561   -4.4101 H         1 <0>         0.0723
     58 H22         6.0796    4.4972   -5.9168 H         1 <0>         0.0557
     59 H23         6.4326    2.9178   -6.6577 H         1 <0>         0.0560
     60 H24         5.0080    3.1100   -5.6080 H         1 <0>         0.0580
     61 H25         8.9376    3.1954   -3.9181 H         1 <0>         0.0546
     62 H26         8.7273    2.9677   -5.6708 H         1 <0>         0.0567
     63 H27         8.3743    4.5472   -4.9299 H         1 <0>         0.0554
     64 H28        -5.6715    2.3741    0.4589 H         1 <0>         0.4113
     65 H29        -6.6359    2.7004   -0.8776 H         1 <0>         0.4092
     66 H30        -1.4833    4.5209   -2.8373 H         1 <0>         0.4163
     67 H31        -3.1341    4.2157   -2.9047 H         1 <0>         0.4186
@<TRIPOS>BOND
     1    1    2 1
     2    1   38 1
     3    1   39 1
     4    1   40 1
     5    2    7 ar
     6    2    3 ar
     7    3    4 ar
     8    3   41 1
     9    4    5 ar
    10    4   42 1
    11    5    6 ar
    12    5   43 1
    13    6    7 ar
    14    6    8 1
    15    7   44 1
    16    8    9 1
    17    8   27 am
    18    9   10 1
    19    9   11 1
    20    9   19 1
    21   11   16 ar
    22   11   12 ar
    23   12   13 ar
    24   12   45 1
    25   13   14 ar
    26   13   46 1
    27   14   15 ar
    28   14   17 1
    29   15   16 ar
    30   15   47 1
    31   16   48 1
    32   17   18 1
    33   18   49 1
    34   18   50 1
    35   18   51 1
    36   19   20 2
    37   19   21 am
    38   21   22 1
    39   21   52 1
    40   22   23 1
    41   22   53 1
    42   22   54 1
    43   23   24 1
    44   23   55 1
    45   23   56 1
    46   24   25 1
    47   24   26 1
    48   24   57 1
    49   25   58 1
    50   25   59 1
    51   25   60 1
    52   26   61 1
    53   26   62 1
    54   26   63 1
    55   27   28 2
    56   27   29 1
    57   29   33 1
    58   29   30 2
    59   30   31 1
    60   30   37 1
    61   31   32 2
    62   31   34 1
    63   32   33 1
    64   34   35 2
    65   34   36 am
    66   36   64 1
    67   36   65 1
    68   37   66 1
    69   37   67 1
@<TRIPOS>MOLECULE
ZINC21327381
   60    61     0     0     0
SMALL
USER_CHARGES
[2-oxo-2-[[2-oxo-2-[(2,4,6-trimethylphenyl)amino]ethyl]amino]ethyl] (3S)-3-(4-chlorophenyl)-3-ureido-propanoate
@<TRIPOS>ATOM
      1 C1         -0.2505   -0.9602   15.8681 C.3       1 <0>        -0.1181
      2 C2         -0.2681   -0.0362   14.6776 C.ar      1 <0>        -0.0798
      3 C3          0.0881    1.2913   14.8293 C.ar      1 <0>        -0.1173
      4 C4          0.0729    2.1406   13.7403 C.ar      1 <0>        -0.0871
      5 C5         -0.3000    1.6600   12.4919 C.ar      1 <0>         0.1281
      6 C6         -0.6618    0.3274   12.3439 C.ar      1 <0>        -0.0633
      7 C7         -0.6400   -0.5179   13.4359 C.ar      1 <0>        -0.1166
      8 C8         -1.0726   -0.1971   10.9921 C.3       1 <0>        -0.1445
      9 N1         -0.3168    2.5179   11.3867 N.am      1 <0>        -0.6758
     10 C9          0.3233    2.1692   10.2531 C.2       1 <0>         0.5067
     11 O1          0.9863    1.1541   10.2187 O.2       1 <0>        -0.5129
     12 C10         0.2154    3.0405    9.0282 C.3       1 <0>         0.1070
     13 N2          0.9951    2.4491    7.9380 N.am      1 <0>        -0.7293
     14 C11         1.0455    3.0595    6.7374 C.2       1 <0>         0.5214
     15 O2          0.4454    4.0983    6.5596 O.2       1 <0>        -0.5199
     16 C12         1.8475    2.4512    5.6159 C.3       1 <0>         0.0493
     17 O3          1.7436    3.2907    4.4358 O.3       1 <0>        -0.3335
     18 C13         2.4053    2.8865    3.3402 C.2       1 <0>         0.4599
     19 O4          3.0501    1.8650    3.3664 O.2       1 <0>        -0.4878
     20 C14         2.3441    3.7067    2.0775 C.3       1 <0>        -0.1176
     21 C15         3.1784    3.0294    0.9884 C.3       1 <0>         0.2190
     22 H1          2.8729    1.9816    0.8510 H         1 <0>         0.1131
     23 C16         3.0188    3.7819   -0.3075 C.ar      1 <0>        -0.0960
     24 C17         3.6678    4.9887   -0.4902 C.ar      1 <0>        -0.0889
     25 C18         3.5264    5.6765   -1.6806 C.ar      1 <0>        -0.1120
     26 C19         2.7261    5.1625   -2.6853 C.ar      1 <0>        -0.0309
     27 C20         2.0723    3.9574   -2.4998 C.ar      1 <0>        -0.1090
     28 C21         2.2190    3.2677   -1.3110 C.ar      1 <0>        -0.0860
     29 Cl1         2.5418    6.0296   -4.1779 Cl        1 <0>        -0.0687
     30 N3          4.5893    3.0299    1.3828 N.am      1 <0>        -0.7475
     31 C22         5.4199    2.0767    0.9160 C.2       1 <0>         0.7172
     32 O5          4.9816    1.1668    0.2390 O.2       1 <0>        -0.5975
     33 N4          6.7363    2.1320    1.1997 N.am      1 <0>        -0.8921
     34 C23         0.4612    3.5872   13.9064 C.3       1 <0>        -0.1161
     35 H2          0.0686   -0.4021   16.7607 H         1 <0>         0.0662
     36 H3          0.4520   -1.7857   15.6811 H         1 <0>         0.0710
     37 H4         -1.2593   -1.3671   16.0313 H         1 <0>         0.0710
     38 H5          0.3780    1.6645   15.8004 H         1 <0>         0.1255
     39 H6         -0.9176   -1.5553   13.3207 H         1 <0>         0.1244
     40 H7         -1.3212   -1.2656   11.0734 H         1 <0>         0.0614
     41 H8         -0.2437   -0.0666   10.2808 H         1 <0>         0.1088
     42 H9         -1.9527    0.3580   10.6354 H         1 <0>         0.0610
     43 H10        -0.8525    3.4770   11.4430 H         1 <0>         0.4357
     44 H11        -0.8391    3.1177    8.7249 H         1 <0>         0.1037
     45 H12         0.6057    4.0434    9.2560 H         1 <0>         0.1028
     46 H13         1.5394    1.5069    8.0993 H         1 <0>         0.4391
     47 H14         2.9020    2.3740    5.9192 H         1 <0>         0.1051
     48 H15         1.4572    1.4484    5.3880 H         1 <0>         0.1058
     49 H16         1.2994    3.7867    1.7425 H         1 <0>         0.1282
     50 H17         2.7443    4.7124    2.2737 H         1 <0>         0.1180
     51 H18         4.2890    5.3920    0.2959 H         1 <0>         0.1290
     52 H19         4.0370    6.6172   -1.8249 H         1 <0>         0.1337
     53 H20         1.4471    3.5558   -3.2836 H         1 <0>         0.1356
     54 H21         1.7084    2.3272   -1.1660 H         1 <0>         0.1347
     55 H22         4.9708    3.8083    2.0600 H         1 <0>         0.4093
     56 H23         7.4142    1.3540    0.8187 H         1 <0>         0.4366
     57 H24         7.1328    2.9551    1.8123 H         1 <0>         0.4108
     58 H25         0.3880    4.1002   12.9361 H         1 <0>         0.0631
     59 H26         1.4951    3.6491   14.2768 H         1 <0>         0.0729
     60 H27        -0.2161    4.0681   14.6275 H         1 <0>         0.0732
@<TRIPOS>BOND
     1    1    2 1
     2    1   35 1
     3    1   36 1
     4    1   37 1
     5    2    7 ar
     6    2    3 ar
     7    3    4 ar
     8    3   38 1
     9    4    5 ar
    10    4   34 1
    11    5    6 ar
    12    5    9 1
    13    6    7 ar
    14    6    8 1
    15    7   39 1
    16    8   40 1
    17    8   41 1
    18    8   42 1
    19    9   10 am
    20    9   43 1
    21   10   11 2
    22   10   12 1
    23   12   13 1
    24   12   44 1
    25   12   45 1
    26   13   14 am
    27   13   46 1
    28   14   15 2
    29   14   16 1
    30   16   17 1
    31   16   47 1
    32   16   48 1
    33   17   18 1
    34   18   19 2
    35   18   20 1
    36   20   21 1
    37   20   49 1
    38   20   50 1
    39   21   22 1
    40   21   23 1
    41   21   30 1
    42   23   28 ar
    43   23   24 ar
    44   24   25 ar
    45   24   51 1
    46   25   26 ar
    47   25   52 1
    48   26   27 ar
    49   26   29 1
    50   27   28 ar
    51   27   53 1
    52   28   54 1
    53   30   31 am
    54   30   55 1
    55   31   32 2
    56   31   33 am
    57   33   56 1
    58   33   57 1
    59   34   58 1
    60   34   59 1
    61   34   60 1
@<TRIPOS>MOLECULE
ZINC57212924
   56    56     0     0     0
SMALL
USER_CHARGES

@<TRIPOS>ATOM
      1 C1         -1.4805    0.6701   -0.9603 C.3       1 <0>        -0.1190
      2 C2         -1.2344   -0.8007   -0.7426 C.ar      1 <0>        -0.0759
      3 C3         -1.1657   -1.6576   -1.8252 C.ar      1 <0>        -0.1234
      4 C4         -0.9400   -3.0067   -1.6255 C.ar      1 <0>        -0.0944
      5 C5         -0.7825   -3.4988   -0.3433 C.ar      1 <0>        -0.1178
      6 C6         -0.8503   -2.6417    0.7391 C.ar      1 <0>        -0.0943
      7 C7         -1.0718   -1.2920    0.5392 C.ar      1 <0>        -0.1236
      8 C8         -0.5374   -4.9697   -0.1256 C.3       1 <0>         0.1825
      9 N1          0.9039   -5.2320   -0.1400 N.am      1 <0>        -0.7400
     10 C9          1.3622   -6.4871    0.0363 C.2       1 <0>         0.7096
     11 O1          0.5795   -7.4017    0.2073 O.2       1 <0>        -0.5893
     12 N2          2.6881   -6.7284    0.0230 N.am      1 <0>        -0.7273
     13 C10         3.1916   -8.0702    0.3270 C.3       1 <0>         0.1468
     14 H1          2.5159   -8.8155   -0.0926 H         1 <0>         0.1157
     15 C11         3.2736   -8.2526    1.8438 C.3       1 <0>        -0.1251
     16 C12         4.0906   -7.1106    2.4514 C.3       1 <0>        -0.0944
     17 C13         4.0165   -7.1864    3.9778 C.3       1 <0>        -0.1464
     18 C14         5.5488   -7.2330    2.0049 C.3       1 <0>        -0.1754
     19 C15         4.5629   -8.2403   -0.2743 C.2       1 <0>         0.5253
     20 O2          5.0747   -7.3263   -0.8855 O.2       1 <0>        -0.5368
     21 N3          5.2206   -9.4082   -0.1329 N.am      1 <0>        -0.7246
     22 C16         6.5537   -9.5736   -0.7174 C.3       1 <0>         0.1190
     23 C17         7.0727  -10.9805   -0.4139 C.3       1 <0>        -0.1191
     24 C18         8.4649  -11.1533   -1.0243 C.3       1 <0>        -0.1398
     25 C19         8.9761  -12.5390   -0.7253 C.2       1 <0>         0.5160
     26 O3          8.2940  -13.3123   -0.0868 O.2       1 <0>        -0.5426
     27 N4         10.1913  -12.9190   -1.1674 N.am      1 <0>        -0.8575
     28 H2         -0.5269    1.1842   -1.0802 H         1 <0>         0.0725
     29 H3         -2.0834    0.8086   -1.8578 H         1 <0>         0.0679
     30 H4         -2.0094    1.0811   -0.1004 H         1 <0>         0.0679
     31 H5         -1.2887   -1.2731   -2.8269 H         1 <0>         0.1241
     32 H6         -0.8870   -3.6763   -2.4712 H         1 <0>         0.1244
     33 H7         -0.7276   -3.0263    1.7409 H         1 <0>         0.1243
     34 H8         -1.1211   -0.6218    1.3847 H         1 <0>         0.1240
     35 H9         -0.9514   -5.2684    0.8374 H         1 <0>         0.0757
     36 H10        -1.0184   -5.5398   -0.9204 H         1 <0>         0.0753
     37 H11         1.5283   -4.5023   -0.2765 H         1 <0>         0.3984
     38 H12         3.3091   -6.0136   -0.1878 H         1 <0>         0.4059
     39 H13         2.2685   -8.2448    2.2656 H         1 <0>         0.0837
     40 H14         3.7550   -9.2041    2.0698 H         1 <0>         0.0770
     41 H15         3.6865   -6.1558    2.1150 H         1 <0>         0.0720
     42 H16         4.4205   -8.1412    4.3142 H         1 <0>         0.0547
     43 H17         4.5985   -6.3728    4.4107 H         1 <0>         0.0545
     44 H18         2.9776   -7.0992    4.2959 H         1 <0>         0.0540
     45 H19         5.8753   -8.2677    2.1099 H         1 <0>         0.0549
     46 H20         5.6363   -6.9285    0.9620 H         1 <0>         0.0757
     47 H21         6.1738   -6.5902    2.6248 H         1 <0>         0.0539
     48 H22         4.8112  -10.1392    0.3559 H         1 <0>         0.4050
     49 H23         6.4973   -9.4322   -1.7967 H         1 <0>         0.0710
     50 H24         7.2322   -8.8358   -0.2893 H         1 <0>         0.0717
     51 H25         7.1291  -11.1220    0.6655 H         1 <0>         0.0796
     52 H26         6.3941  -11.7183   -0.8420 H         1 <0>         0.0797
     53 H27         8.4085  -11.0118   -2.1036 H         1 <0>         0.0993
     54 H28         9.1435  -10.4155   -0.5962 H         1 <0>         0.0993
     55 H29        10.7368  -12.3005   -1.6781 H         1 <0>         0.4027
     56 H30        10.5203  -13.8110   -0.9750 H         1 <0>         0.4028
@<TRIPOS>BOND
     1    1    2 1
     2    1   28 1
     3    1   29 1
     4    1   30 1
     5    2    7 ar
     6    2    3 ar
     7    3    4 ar
     8    3   31 1
     9    4    5 ar
    10    4   32 1
    11    5    6 ar
    12    5    8 1
    13    6    7 ar
    14    6   33 1
    15    7   34 1
    16    8    9 1
    17    8   35 1
    18    8   36 1
    19    9   10 am
    20    9   37 1
    21   10   11 2
    22   10   12 am
    23   12   13 1
    24   12   38 1
    25   13   14 1
    26   13   15 1
    27   13   19 1
    28   15   16 1
    29   15   39 1
    30   15   40 1
    31   16   17 1
    32   16   18 1
    33   16   41 1
    34   17   42 1
    35   17   43 1
    36   17   44 1
    37   18   45 1
    38   18   46 1
    39   18   47 1
    40   19   20 2
    41   19   21 am
    42   21   22 1
    43   21   48 1
    44   22   23 1
    45   22   49 1
    46   22   50 1
    47   23   24 1
    48   23   51 1
    49   23   52 1
    50   24   25 1
    51   24   53 1
    52   24   54 1
    53   25   26 2
    54   25   27 am
    55   27   55 1
    56   27   56 1
@<TRIPOS>MOLECULE
ZINC67222405
   65    66     0     0     0
SMALL
USER_CHARGES

@<TRIPOS>ATOM
      1 C1          4.2224    1.5332    2.8262 C.3       1 <0>        -0.1561
      2 C2          4.2319    0.0128    2.6547 C.3       1 <0>        -0.1075
      3 H1          4.6975   -0.2432    1.7030 H         1 <0>         0.0940
      4 C3          5.0236   -0.6260    3.7995 C.3       1 <0>        -0.1397
      5 C4          4.9610   -2.1499    3.6621 C.3       1 <0>        -0.1454
      6 C5          3.4973   -2.5958    3.6497 C.3       1 <0>        -0.0294
      7 N1          2.8016   -1.9720    2.5177 N.4       1 <0>        -0.3923
      8 C6          2.7951   -0.5131    2.6786 C.3       1 <0>        -0.0158
      9 C7          1.4182   -2.4633    2.4642 C.3       1 <0>         0.0355
     10 C8          0.6850   -2.0633    3.7461 C.3       1 <0>        -0.1807
     11 C9          0.7057   -1.8506    1.2568 C.3       1 <0>        -0.1974
     12 C10         1.4231   -3.9878    2.3340 C.3       1 <0>        -0.0308
     13 N2          2.2358   -4.3776    1.1741 N.4       1 <0>        -0.5256
     14 C11         2.1480   -5.8312    0.9809 C.3       1 <0>         0.0477
     15 C12         2.9818   -6.2310   -0.2090 C.ar      1 <0>        -0.1045
     16 C13         2.4161   -6.2561   -1.4700 C.ar      1 <0>        -0.2114
     17 C14         3.1797   -6.6239   -2.5674 C.ar      1 <0>         0.1626
     18 C15         4.5158   -6.9672   -2.3983 C.ar      1 <0>         0.0698
     19 C16         5.0809   -6.9403   -1.1289 C.ar      1 <0>         0.1616
     20 C17         4.3118   -6.5664   -0.0373 C.ar      1 <0>        -0.2152
     21 O1          6.3879   -7.2755   -0.9582 O.3       1 <0>        -0.2872
     22 C18         6.9017   -7.2254    0.3743 C.3       1 <0>         0.0210
     23 O2          5.2685   -7.3292   -3.4728 O.3       1 <0>        -0.2806
     24 C19         5.9620   -6.2858   -4.1601 C.3       1 <0>         0.0495
     25 C20         6.7364   -6.8718   -5.3125 C.2       1 <0>         0.5168
     26 O3          6.6983   -8.0653   -5.5243 O.2       1 <0>        -0.5086
     27 N3          7.4715   -6.0694   -6.1078 N.am      1 <0>        -0.8493
     28 O4          2.6220   -6.6490   -3.8075 O.3       1 <0>        -0.2871
     29 C21         1.2438   -6.2845   -3.9065 C.3       1 <0>         0.0200
     30 H2          3.7568    1.7885    3.7781 H         1 <0>         0.0716
     31 H3          5.2462    1.9070    2.8107 H         1 <0>         0.0844
     32 H4          3.6575    1.9871    2.0120 H         1 <0>         0.0716
     33 H5          6.0620   -0.2980    3.7519 H         1 <0>         0.1034
     34 H6          4.5893   -0.3279    4.7537 H         1 <0>         0.0891
     35 H7          5.4413   -2.4515    2.7312 H         1 <0>         0.0879
     36 H8          5.4754   -2.6127    4.5043 H         1 <0>         0.1237
     37 H9          3.4491   -3.6804    3.5522 H         1 <0>         0.1215
     38 H10         3.0181   -2.2940    4.5811 H         1 <0>         0.1498
     39 H11         2.3302   -0.2556    3.6302 H         1 <0>         0.1433
     40 H12         2.2293   -0.0601    1.8645 H         1 <0>         0.1400
     41 H13         0.6815   -0.9773    3.8388 H         1 <0>         0.1060
     42 H14        -0.3415   -2.4278    3.7064 H         1 <0>         0.1210
     43 H15         1.1925   -2.4998    4.6063 H         1 <0>         0.0957
     44 H16         1.2281   -2.1356    0.3435 H         1 <0>         0.0775
     45 H17        -0.3207   -2.2152    1.2171 H         1 <0>         0.1276
     46 H18         0.7023   -0.7646    1.3495 H         1 <0>         0.1127
     47 H19         1.8446   -4.4283    3.2375 H         1 <0>         0.1622
     48 H20         0.4019   -4.3441    2.1984 H         1 <0>         0.1830
     49 H21         1.8929   -3.9074    0.3498 H         1 <0>         0.4333
     50 H22         2.5185   -6.3391    1.8713 H         1 <0>         0.1509
     51 H23         1.1093   -6.1126    0.8078 H         1 <0>         0.1548
     52 H24         1.3778   -5.9891   -1.6006 H         1 <0>         0.1462
     53 H25         4.7514   -6.5410    0.9488 H         1 <0>         0.1438
     54 H26         7.9525   -7.5153    0.3696 H         1 <0>         0.1168
     55 H27         6.8063   -6.2115    0.7627 H         1 <0>         0.0550
     56 H28         6.3384   -7.9114    1.0070 H         1 <0>         0.0646
     57 H29         5.2428   -5.5591   -4.5379 H         1 <0>         0.0869
     58 H30         6.6500   -5.7929   -3.4732 H         1 <0>         0.0864
     59 H31         7.5020   -5.1148   -5.9384 H         1 <0>         0.4018
     60 H32         7.9699   -6.4466   -6.8495 H         1 <0>         0.4144
     61 H33         0.6438   -6.9644   -3.3016 H         1 <0>         0.0650
     62 H34         1.1110   -5.2643   -3.5462 H         1 <0>         0.0573
     63 H35         0.9253   -6.3467   -4.9470 H         1 <0>         0.1173
     64 H36         3.1974   -4.1170    1.3343 H         1 <0>         0.4146
     65 H37         3.2750   -2.2121    1.6596 H         1 <0>         0.4047
@<TRIPOS>BOND
     1    1    2 1
     2    1   30 1
     3    1   31 1
     4    1   32 1
     5    2    3 1
     6    2    8 1
     7    2    4 1
     8    4    5 1
     9    4   33 1
    10    4   34 1
    11    5    6 1
    12    5   35 1
    13    5   36 1
    14    6    7 1
    15    6   37 1
    16    6   38 1
    17    7    8 1
    18    7    9 1
    19    7   65 1
    20    8   39 1
    21    8   40 1
    22    9   10 1
    23    9   11 1
    24    9   12 1
    25   10   41 1
    26   10   42 1
    27   10   43 1
    28   11   44 1
    29   11   45 1
    30   11   46 1
    31   12   13 1
    32   12   47 1
    33   12   48 1
    34   13   14 1
    35   13   49 1
    36   13   64 1
    37   14   15 1
    38   14   50 1
    39   14   51 1
    40   15   20 ar
    41   15   16 ar
    42   16   17 ar
    43   16   52 1
    44   17   18 ar
    45   17   28 1
    46   18   19 ar
    47   18   23 1
    48   19   20 ar
    49   19   21 1
    50   20   53 1
    51   21   22 1
    52   22   54 1
    53   22   55 1
    54   22   56 1
    55   23   24 1
    56   24   25 1
    57   24   57 1
    58   24   58 1
    59   25   26 2
    60   25   27 am
    61   27   59 1
    62   27   60 1
    63   28   29 1
    64   29   61 1
    65   29   62 1
    66   29   63 1
@<TRIPOS>MOLECULE
ZINC12467371
   65    67     0     0     0
SMALL
USER_CHARGES
4-amino-N'-(3,4-dimethylphenyl)-N'-[(1R)-2-(2-methoxyethylamino)-1-(4-methoxyphenyl)-2-oxo-ethyl]isothiazole-3,5-dicarboxamide
@<TRIPOS>ATOM
      1 C1         -1.9858    0.8331    0.0646 C.3       1 <0>        -0.1200
      2 C2         -0.7406    1.6814    0.0358 C.ar      1 <0>        -0.0711
      3 C3         -0.5555    2.6677    0.9877 C.ar      1 <0>        -0.1062
      4 C4          0.5872    3.4427    0.9678 C.ar      1 <0>        -0.1136
      5 C5          1.5487    3.2348   -0.0130 C.ar      1 <0>         0.1205
      6 C6          1.3571    2.2475   -0.9707 C.ar      1 <0>        -0.0936
      7 C7          0.2118    1.4757   -0.9451 C.ar      1 <0>        -0.0724
      8 C8          0.0028    0.4044   -1.9842 C.3       1 <0>        -0.1168
      9 N1          2.7072    4.0176   -0.0357 N.am      1 <0>        -0.5506
     10 C9          3.9730    3.4670    0.4551 C.3       1 <0>         0.1880
     11 H1          4.7412    3.5850   -0.3091 H         1 <0>         0.1163
     12 C10         3.7964    2.0035    0.7681 C.ar      1 <0>        -0.1444
     13 C11         2.8500    1.6050    1.6940 C.ar      1 <0>        -0.0429
     14 C12         2.6823    0.2636    1.9785 C.ar      1 <0>        -0.2035
     15 C13         3.4726   -0.6831    1.3431 C.ar      1 <0>         0.1441
     16 C14         4.4255   -0.2803    0.4187 C.ar      1 <0>        -0.1519
     17 C15         4.5851    1.0619    0.1332 C.ar      1 <0>        -0.0564
     18 O1          3.3140   -2.0028    1.6260 O.3       1 <0>        -0.3152
     19 C16         2.3139   -2.3445    2.5879 C.3       1 <0>         0.0262
     20 C17         4.3895    4.2010    1.7036 C.2       1 <0>         0.5136
     21 O2          3.6973    5.0959    2.1404 O.2       1 <0>        -0.5212
     22 N2          5.5314    3.8630    2.3348 N.am      1 <0>        -0.7186
     23 C18         5.9363    4.5766    3.5485 C.3       1 <0>         0.1244
     24 C19         7.2583    4.0016    4.0611 C.3       1 <0>         0.0476
     25 O3          8.2914    4.2598    3.1082 O.3       1 <0>        -0.3883
     26 C20         9.5743    3.7611    3.4923 C.3       1 <0>         0.0304
     27 C21         2.6593    5.2785   -0.5091 C.2       1 <0>         0.6399
     28 O4          3.6838    5.9267   -0.6191 O.2       1 <0>        -0.5236
     29 C22         1.3752    5.8687   -0.8911 C.2       1 <0>        -0.3875
     30 C23         1.0836    7.1773   -1.2810 C.2       1 <0>         0.2743
     31 C24        -0.2688    7.3597   -1.5699 C.2       1 <0>        -0.0404
     32 N3         -1.0940    6.3428   -1.4550 N.2       1 <0>        -0.4578
     33 S1         -0.2318    5.1079   -0.9904 S.3       1 <0>         0.4739
     34 C25        -0.7675    8.6791   -1.9992 C.2       1 <0>         0.6018
     35 O5          0.0014    9.6154   -2.1029 O.2       1 <0>        -0.5428
     36 N4         -2.0757    8.8474   -2.2765 N.am      1 <0>        -0.8318
     37 N5          2.0342    8.1854   -1.3705 N.pl3     1 <0>        -0.8064
     38 H2         -2.7615    1.3058   -0.5377 H         1 <0>         0.0745
     39 H3         -1.7624   -0.1540   -0.3403 H         1 <0>         0.0703
     40 H4         -2.3341    0.7337    1.0927 H         1 <0>         0.0682
     41 H5         -1.3034    2.8289    1.7499 H         1 <0>         0.1313
     42 H6          0.7330    4.2099    1.7138 H         1 <0>         0.1329
     43 H7          2.1028    2.0830   -1.7343 H         1 <0>         0.1282
     44 H8          0.3362   -0.5551   -1.5890 H         1 <0>         0.0723
     45 H9         -1.0559    0.3451   -2.2371 H         1 <0>         0.0716
     46 H10         0.5767    0.6484   -2.8782 H         1 <0>         0.0674
     47 H11         2.2384    2.3428    2.1921 H         1 <0>         0.1273
     48 H12         1.9401   -0.0474    2.6987 H         1 <0>         0.1293
     49 H13         5.0417   -1.0154   -0.0775 H         1 <0>         0.1347
     50 H14         5.3267    1.3759   -0.5864 H         1 <0>         0.1344
     51 H15         2.2915   -3.4262    2.7201 H         1 <0>         0.1017
     52 H16         2.5469   -1.8669    3.5396 H         1 <0>         0.0563
     53 H17         1.3406   -2.0010    2.2376 H         1 <0>         0.0574
     54 H18         6.0851    3.1472    1.9854 H         1 <0>         0.4038
     55 H19         6.0641    5.6351    3.3221 H         1 <0>         0.0783
     56 H20         5.1682    4.4586    4.3127 H         1 <0>         0.0828
     57 H21         7.5145    4.4707    5.0110 H         1 <0>         0.0679
     58 H22         7.1558    2.9257    4.2032 H         1 <0>         0.0574
     59 H23        10.3030    3.9973    2.7169 H         1 <0>         0.0884
     60 H24         9.8786    4.2253    4.4304 H         1 <0>         0.0429
     61 H25         9.5198    2.6803    3.6226 H         1 <0>         0.0425
     62 H26        -2.6890    8.1004   -2.1938 H         1 <0>         0.4111
     63 H27        -2.4038    9.7154   -2.5589 H         1 <0>         0.4088
     64 H28         2.9614    7.9982   -1.1557 H         1 <0>         0.4161
     65 H29         1.7711    9.0769   -1.6477 H         1 <0>         0.4183
@<TRIPOS>BOND
     1    1    2 1
     2    1   38 1
     3    1   39 1
     4    1   40 1
     5    2    7 ar
     6    2    3 ar
     7    3    4 ar
     8    3   41 1
     9    4    5 ar
    10    4   42 1
    11    5    6 ar
    12    5    9 1
    13    6    7 ar
    14    6   43 1
    15    7    8 1
    16    8   44 1
    17    8   45 1
    18    8   46 1
    19    9   10 1
    20    9   27 am
    21   10   11 1
    22   10   12 1
    23   10   20 1
    24   12   17 ar
    25   12   13 ar
    26   13   14 ar
    27   13   47 1
    28   14   15 ar
    29   14   48 1
    30   15   16 ar
    31   15   18 1
    32   16   17 ar
    33   16   49 1
    34   17   50 1
    35   18   19 1
    36   19   51 1
    37   19   52 1
    38   19   53 1
    39   20   21 2
    40   20   22 am
    41   22   23 1
    42   22   54 1
    43   23   24 1
    44   23   55 1
    45   23   56 1
    46   24   25 1
    47   24   57 1
    48   24   58 1
    49   25   26 1
    50   26   59 1
    51   26   60 1
    52   26   61 1
    53   27   28 2
    54   27   29 1
    55   29   33 1
    56   29   30 2
    57   30   31 1
    58   30   37 1
    59   31   32 2
    60   31   34 1
    61   32   33 1
    62   34   35 2
    63   34   36 am
    64   36   62 1
    65   36   63 1
    66   37   64 1
    67   37   65 1
@<TRIPOS>MOLECULE
ZINC21326595
   58    60     0     0     0
SMALL
USER_CHARGES
2-[[4-amino-5-[(N'E)-N'-[(3-ethoxy-4-hydroxy-phenyl)methylene]hydrazino]-1,2,4-triazol-3-yl]sulfanyl]-N-(4-methoxy-2-methyl-phenyl)acetamide
@<TRIPOS>ATOM
      1 C1        -18.3679    5.0364   -1.3764 C.3       1 <0>        -0.1547
      2 C2        -16.8534    4.8582   -1.2523 C.3       1 <0>         0.0507
      3 O1        -16.2262    6.1408   -1.1922 O.3       1 <0>        -0.3041
      4 C3        -14.8710    6.1607   -1.0800 C.ar      1 <0>         0.0875
      5 C4        -14.1642    4.9736   -1.0292 C.ar      1 <0>        -0.1433
      6 C5        -12.7718    4.9979   -0.9144 C.ar      1 <0>        -0.0579
      7 C6        -12.1013    6.2218   -0.8457 C.ar      1 <0>        -0.0700
      8 C7        -12.8130    7.4018   -0.9024 C.ar      1 <0>        -0.1847
      9 C8        -14.1953    7.3771   -1.0169 C.ar      1 <0>         0.1483
     10 O2        -14.8923    8.5434   -1.0671 O.3       1 <0>        -0.4978
     11 C9        -12.0128    3.7354   -0.8597 C.2       1 <0>         0.1009
     12 N1        -10.7188    3.7598   -0.7530 N.2       1 <0>        -0.1944
     13 N2         -9.9974    2.5600   -0.7011 N.pl3     1 <0>        -0.5620
     14 C10        -8.6150    2.5861   -0.5871 C.2       1 <0>         0.4884
     15 N3         -7.8676    3.6611   -0.5184 N.2       1 <0>        -0.3139
     16 N4         -6.5321    3.2531   -0.4049 N.2       1 <0>        -0.3047
     17 C11        -6.5064    1.9418   -0.4169 C.2       1 <0>         0.1731
     18 N5         -7.7928    1.4953   -0.5261 N.pl3     1 <0>        -0.2627
     19 N6         -8.1883    0.1885   -0.5677 N.3       1 <0>        -0.7779
     20 S1         -5.0662    0.9330   -0.3044 S.3       1 <0>         0.0737
     21 C12        -3.7039    2.1248   -0.1842 C.3       1 <0>        -0.1447
     22 C13        -2.3958    1.3838   -0.0808 C.2       1 <0>         0.5381
     23 O3         -2.3836    0.1710   -0.0877 O.2       1 <0>        -0.5115
     24 N7         -1.2394    2.0688    0.0192 N.am      1 <0>        -0.6720
     25 C14        -0.0172    1.3836    0.0205 C.ar      1 <0>         0.1070
     26 C15         0.0781    0.1341    0.6189 C.ar      1 <0>        -0.0759
     27 C16         1.2813   -0.5430    0.6148 C.ar      1 <0>        -0.1958
     28 C17         2.3951    0.0247    0.0130 C.ar      1 <0>         0.1200
     29 C18         2.3006    1.2726   -0.5849 C.ar      1 <0>        -0.1365
     30 C19         1.0977    1.9511   -0.5815 C.ar      1 <0>        -0.0668
     31 C20         0.9951    3.3068   -1.2316 C.3       1 <0>        -0.1175
     32 O4          3.5796   -0.6429    0.0090 O.3       1 <0>        -0.3173
     33 C21         3.6047   -1.9236    0.6424 C.3       1 <0>         0.0232
     34 H1        -18.8507    4.0491   -1.4227 H         1 <0>         0.0792
     35 H2        -18.5969    5.5999   -2.2930 H         1 <0>         0.0675
     36 H3        -18.7449    5.5884   -0.5028 H         1 <0>         0.0675
     37 H4        -16.6244    4.2947   -0.3357 H         1 <0>         0.0618
     38 H5        -16.4763    4.3062   -2.1259 H         1 <0>         0.0618
     39 H6        -14.6870    4.0298   -1.0784 H         1 <0>         0.1383
     40 H7        -11.0256    6.2439   -0.7525 H         1 <0>         0.1404
     41 H8        -12.2934    8.3472   -0.8531 H         1 <0>         0.1393
     42 H9        -14.3601    9.5048   -1.0174 H         1 <0>         0.4346
     43 H10       -12.5425    2.7726   -0.9093 H         1 <0>         0.1227
     44 H11       -10.5270    1.5972   -0.7507 H         1 <0>         0.4087
     45 H12        -7.4391   -0.6149   -0.5108 H         1 <0>         0.4494
     46 H13        -9.2560   -0.0604   -0.6581 H         1 <0>         0.4367
     47 H14        -3.6943    2.7623   -1.0806 H         1 <0>         0.1324
     48 H15        -3.8423    2.7509    0.7096 H         1 <0>         0.1321
     49 H16        -1.2551    3.1657    0.0998 H         1 <0>         0.4374
     50 H17        -0.7890   -0.3080    1.0870 H         1 <0>         0.1424
     51 H18         1.3554   -1.5149    1.0798 H         1 <0>         0.1313
     52 H19         3.1680    1.7140   -1.0531 H         1 <0>         0.1352
     53 H20         1.9727    3.5874   -1.6507 H         1 <0>         0.0739
     54 H21         0.6906    4.0512   -0.4812 H         1 <0>         0.0723
     55 H22         0.2472    3.2713   -2.0374 H         1 <0>         0.0737
     56 H23         4.6159   -2.3501    0.5672 H         1 <0>         0.1025
     57 H24         2.8867   -2.5926    0.1454 H         1 <0>         0.0571
     58 H25         3.3308   -1.8140    1.7021 H         1 <0>         0.0569
@<TRIPOS>BOND
     1    1    2 1
     2    1   34 1
     3    1   35 1
     4    1   36 1
     5    2    3 1
     6    2   37 1
     7    2   38 1
     8    3    4 1
     9    4    9 ar
    10    4    5 ar
    11    5    6 ar
    12    5   39 1
    13    6    7 ar
    14    6   11 1
    15    7    8 ar
    16    7   40 1
    17    8    9 ar
    18    8   41 1
    19    9   10 1
    20   10   42 1
    21   11   12 2
    22   11   43 1
    23   12   13 1
    24   13   14 1
    25   13   44 1
    26   14   18 1
    27   14   15 2
    28   15   16 1
    29   16   17 2
    30   17   18 1
    31   17   20 1
    32   18   19 1
    33   19   45 1
    34   19   46 1
    35   20   21 1
    36   21   22 1
    37   21   47 1
    38   21   48 1
    39   22   23 2
    40   22   24 am
    41   24   25 1
    42   24   49 1
    43   25   30 ar
    44   25   26 ar
    45   26   27 ar
    46   26   50 1
    47   27   28 ar
    48   27   51 1
    49   28   29 ar
    50   28   32 1
    51   29   30 ar
    52   29   52 1
    53   30   31 1
    54   31   53 1
    55   31   54 1
    56   31   55 1
    57   32   33 1
    58   33   56 1
    59   33   57 1
    60   33   58 1
@<TRIPOS>MOLECULE
ZINC04356245
   61    63     0     0     0
SMALL
USER_CHARGES

@<TRIPOS>ATOM
      1 C1          6.2186   -4.9332    6.2101 C.3       1 <0>        -0.1527
      2 C2          6.4904   -3.6978    5.3495 C.3       1 <0>        -0.0935
      3 C3          7.3514   -4.0926    4.1480 C.3       1 <0>        -0.1478
      4 C4          5.1631   -3.1173    4.8571 C.3       1 <0>        -0.1270
      5 C5          4.3545   -2.6083    6.0521 C.3       1 <0>         0.1202
      6 N1          3.0837   -2.0524    5.5806 N.am      1 <0>        -0.7265
      7 C6          2.2028   -1.5415    6.4634 C.2       1 <0>         0.5094
      8 O1          2.4622   -1.5418    7.6482 O.2       1 <0>        -0.5000
      9 C7          0.8955   -0.9697    5.9784 C.3       1 <0>         0.2280
     10 H1          0.3848   -1.7061    5.3580 H         1 <0>         0.1362
     11 C8          1.1606    0.2729    5.1680 C.2       1 <0>        -0.0172
     12 C9          1.1775    0.3474    3.8250 C.2       1 <0>        -0.1959
     13 C10         1.4638    1.6915    3.4929 C.2       1 <0>        -0.2170
     14 C11         1.6047    2.3579    4.6528 C.2       1 <0>        -0.0308
     15 O2          1.4143    1.4948    5.6641 O.3       1 <0>        -0.1337
     16 N2          0.0535   -0.6321    7.1287 N.am      1 <0>        -0.5456
     17 C12        -1.2149   -1.2108    7.2619 C.ar      1 <0>         0.0674
     18 C13        -1.3653   -2.4065    7.9492 C.ar      1 <0>        -0.0625
     19 C14        -2.6180   -2.9753    8.0797 C.ar      1 <0>        -0.1490
     20 C15        -3.7235   -2.3556    7.5267 C.ar      1 <0>        -0.0586
     21 C16        -3.5814   -1.1640    6.8400 C.ar      1 <0>        -0.2055
     22 C17        -2.3299   -0.5843    6.7096 C.ar      1 <0>         0.1477
     23 O3         -2.1895    0.5907    6.0397 O.3       1 <0>        -0.2989
     24 C18        -3.3764    1.1757    5.5001 C.3       1 <0>         0.0236
     25 C19         0.4995    0.2354    8.0588 C.2       1 <0>         0.6376
     26 O4          1.6020    0.7384    7.9431 O.2       1 <0>        -0.4906
     27 C20        -0.3420    0.5728    9.2084 C.2       1 <0>        -0.3519
     28 C21        -0.0816    1.4398   10.2706 C.2       1 <0>         0.2636
     29 C22        -1.1232    1.5155   11.1930 C.2       1 <0>        -0.0235
     30 N3         -2.2128    0.8019   11.0007 N.2       1 <0>        -0.4299
     31 S1         -1.9751   -0.0077    9.6208 S.3       1 <0>         0.3996
     32 C23        -1.0060    2.3880   12.3757 C.2       1 <0>         0.6009
     33 O5         -0.0434    3.1210   12.4975 O.2       1 <0>        -0.5395
     34 N4         -1.9656    2.3731   13.3219 N.am      1 <0>        -0.8306
     35 N5          1.1010    2.1566   10.3965 N.pl3     1 <0>        -0.8090
     36 H2          5.6929   -5.6811    5.6165 H         1 <0>         0.0553
     37 H3          7.1642   -5.3468    6.5609 H         1 <0>         0.0561
     38 H4          5.6052   -4.6520    7.0661 H         1 <0>         0.0577
     39 H5          7.0161   -2.9499    5.9431 H         1 <0>         0.0732
     40 H6          6.8257   -4.8404    3.5543 H         1 <0>         0.0551
     41 H7          7.5450   -3.2124    3.5348 H         1 <0>         0.0549
     42 H8          8.2969   -4.5061    4.4987 H         1 <0>         0.0568
     43 H9          5.3592   -2.2917    4.1729 H         1 <0>         0.0700
     44 H10         4.5976   -3.8919    4.3392 H         1 <0>         0.0703
     45 H11         4.1585   -3.4338    6.7363 H         1 <0>         0.0712
     46 H12         4.9200   -1.8336    6.5700 H         1 <0>         0.0677
     47 H13         2.8762   -2.0522    4.6330 H         1 <0>         0.3997
     48 H14         1.0058   -0.4640    3.1332 H         1 <0>         0.1479
     49 H15         1.5526    2.1039    2.4988 H         1 <0>         0.1478
     50 H16         1.8290    3.4096    4.7538 H         1 <0>         0.1991
     51 H17        -0.5035   -2.8929    8.3818 H         1 <0>         0.1390
     52 H18        -2.7337   -3.9064    8.6146 H         1 <0>         0.1356
     53 H19        -4.7005   -2.8037    7.6311 H         1 <0>         0.1340
     54 H20        -4.4469   -0.6828    6.4090 H         1 <0>         0.1377
     55 H21        -3.1242    2.1067    4.9924 H         1 <0>         0.1015
     56 H22        -3.8307    0.4856    4.7891 H         1 <0>         0.0595
     57 H23        -4.0796    1.3810    6.3072 H         1 <0>         0.0582
     58 H24        -2.7335    1.7884   13.2248 H         1 <0>         0.4115
     59 H25        -1.8885    2.9471   14.1000 H         1 <0>         0.4096
     60 H26         1.8323    1.9980    9.7793 H         1 <0>         0.4164
     61 H27         1.1957    2.8159   11.1016 H         1 <0>         0.4172
@<TRIPOS>BOND
     1    1    2 1
     2    1   36 1
     3    1   37 1
     4    1   38 1
     5    2    3 1
     6    2    4 1
     7    2   39 1
     8    3   40 1
     9    3   41 1
    10    3   42 1
    11    4    5 1
    12    4   43 1
    13    4   44 1
    14    5    6 1
    15    5   45 1
    16    5   46 1
    17    6    7 am
    18    6   47 1
    19    7    8 2
    20    7    9 1
    21    9   10 1
    22    9   11 1
    23    9   16 1
    24   11   15 1
    25   11   12 2
    26   12   13 1
    27   12   48 1
    28   13   14 2
    29   13   49 1
    30   14   15 1
    31   14   50 1
    32   16   17 1
    33   16   25 am
    34   17   22 ar
    35   17   18 ar
    36   18   19 ar
    37   18   51 1
    38   19   20 ar
    39   19   52 1
    40   20   21 ar
    41   20   53 1
    42   21   22 ar
    43   21   54 1
    44   22   23 1
    45   23   24 1
    46   24   55 1
    47   24   56 1
    48   24   57 1
    49   25   26 2
    50   25   27 1
    51   27   31 1
    52   27   28 2
    53   28   29 1
    54   28   35 1
    55   29   30 2
    56   29   32 1
    57   30   31 1
    58   32   33 2
    59   32   34 am
    60   34   58 1
    61   34   59 1
    62   35   60 1
    63   35   61 1
@<TRIPOS>MOLECULE
ZINC58994341
   56    59     0     0     0
SMALL
USER_CHARGES

@<TRIPOS>ATOM
      1 C1         -0.0187    1.5258    0.0104 C.3       1 <0>        -0.1522
      2 C2          0.0021   -0.0041    0.0020 C.3       1 <0>         0.0560
      3 O1          0.6709   -0.4649   -1.1737 O.3       1 <0>        -0.3452
      4 C3          0.7760   -1.8000   -1.3349 C.2       1 <0>         0.5313
      5 O2          0.3117   -2.5519   -0.4991 O.2       1 <0>        -0.4936
      6 C4          1.4489   -2.3441   -2.5162 C.2       1 <0>        -0.2008
      7 C5          2.8849   -2.6209   -2.5147 C.2       1 <0>        -0.0878
      8 C6          3.3492   -3.1160   -3.6756 C.2       1 <0>        -0.2467
      9 S1          1.9218   -3.2101   -4.7260 S.3       1 <0>         0.3445
     10 C7          0.7514   -2.6230   -3.6781 C.2       1 <0>         0.0398
     11 N1         -0.6027   -2.4539   -3.9209 N.am      1 <0>        -0.6138
     12 C8         -1.1179   -2.7812   -5.1225 C.2       1 <0>         0.5354
     13 O3         -0.3967   -3.2237   -5.9914 O.2       1 <0>        -0.4772
     14 C9         -2.5902   -2.5973   -5.3866 C.3       1 <0>        -0.1630
     15 S2         -2.9711   -3.1236   -7.0802 S.3       1 <0>         0.1266
     16 C10        -4.7053   -2.8507   -7.2315 C.2       1 <0>         0.2142
     17 N2         -5.4393   -3.1027   -8.3206 N.2       1 <0>        -0.5118
     18 C11        -6.6960   -2.7834   -8.0913 C.2       1 <0>         0.5633
     19 N3         -6.7828   -2.3140   -6.8283 N.pl3     1 <0>        -0.5038
     20 N4         -5.4863   -2.3726   -6.2923 N.2       1 <0>        -0.3239
     21 N5         -7.7422   -2.9065   -8.9863 N.pl3     1 <0>        -0.5523
     22 N6         -7.5084   -3.4118  -10.2720 N.2       1 <0>        -0.1767
     23 C12        -8.4911   -3.5275  -11.1127 C.2       1 <0>         0.0997
     24 C13        -8.2452   -4.0589  -12.4648 C.ar      1 <0>        -0.0944
     25 C14        -9.2996   -4.1791  -13.3735 C.ar      1 <0>        -0.0570
     26 C15        -9.0653   -4.6761  -14.6372 C.ar      1 <0>        -0.1605
     27 C16        -7.7829   -5.0591  -15.0115 C.ar      1 <0>         0.1421
     28 C17        -6.7294   -4.9435  -14.1164 C.ar      1 <0>        -0.1816
     29 C18        -6.9512   -4.4404  -12.8465 C.ar      1 <0>         0.1680
     30 O4         -5.9198   -4.3219  -11.9708 O.3       1 <0>        -0.4686
     31 O5         -7.5602   -5.5490  -16.2590 O.3       1 <0>        -0.4977
     32 C19         4.8300   -3.3783   -3.6211 C.3       1 <0>        -0.0309
     33 C20         5.3236   -2.5767   -2.3962 C.3       1 <0>        -0.1154
     34 C21         4.0483   -2.5052   -1.5321 C.3       1 <0>        -0.0615
     35 H1          1.0039    1.9031    0.0027 H         1 <0>         0.0680
     36 H2         -0.5459    1.8868   -0.8726 H         1 <0>         0.0666
     37 H3         -0.5289    1.8773    0.9072 H         1 <0>         0.0810
     38 H4          0.5293   -0.3651    0.8851 H         1 <0>         0.0692
     39 H5         -1.0205   -0.3814    0.0098 H         1 <0>         0.0674
     40 H6         -1.1796   -2.1000   -3.2260 H         1 <0>         0.4216
     41 H7         -3.1637   -3.1990   -4.6815 H         1 <0>         0.1317
     42 H8         -2.8527   -1.5464   -5.2649 H         1 <0>         0.1319
     43 H9         -8.6382   -2.6431   -8.7243 H         1 <0>         0.3981
     44 H10        -9.4887   -3.2342  -10.8209 H         1 <0>         0.1231
     45 H11       -10.2975   -3.8831  -13.0857 H         1 <0>         0.1376
     46 H12        -9.8810   -4.7687  -15.3390 H         1 <0>         0.1370
     47 H13        -5.7347   -5.2426  -14.4122 H         1 <0>         0.1403
     48 H14        -5.7760   -5.1063  -11.4239 H         1 <0>         0.3968
     49 H15        -7.3369   -4.8727  -16.9131 H         1 <0>         0.3972
     50 H16         5.0226   -4.4421   -3.4819 H         1 <0>         0.0865
     51 H17         5.3132   -3.0194   -4.5299 H         1 <0>         0.0819
     52 H18         6.1183   -3.1106   -1.8752 H         1 <0>         0.0855
     53 H19         5.6525   -1.5797   -2.6893 H         1 <0>         0.0785
     54 H20         4.0031   -1.5527   -1.0042 H         1 <0>         0.0737
     55 H21         4.0264   -3.3323   -0.8224 H         1 <0>         0.0831
     56 H22        -7.5835   -2.0012   -6.3788 H         1 <0>         0.4390
@<TRIPOS>BOND
     1    1    2 1
     2    1   35 1
     3    1   36 1
     4    1   37 1
     5    2    3 1
     6    2   38 1
     7    2   39 1
     8    3    4 1
     9    4    5 2
    10    4    6 1
    11    6   10 2
    12    6    7 1
    13    7   34 1
    14    7    8 2
    15    8    9 1
    16    8   32 1
    17    9   10 1
    18   10   11 1
    19   11   12 am
    20   11   40 1
    21   12   13 2
    22   12   14 1
    23   14   15 1
    24   14   41 1
    25   14   42 1
    26   15   16 1
    27   16   20 2
    28   16   17 1
    29   17   18 2
    30   18   19 1
    31   18   21 1
    32   19   20 1
    33   19   56 1
    34   21   22 1
    35   21   43 1
    36   22   23 2
    37   23   24 1
    38   23   44 1
    39   24   29 ar
    40   24   25 ar
    41   25   26 ar
    42   25   45 1
    43   26   27 ar
    44   26   46 1
    45   27   28 ar
    46   27   31 1
    47   28   29 ar
    48   28   47 1
    49   29   30 1
    50   30   48 1
    51   31   49 1
    52   32   33 1
    53   32   50 1
    54   32   51 1
    55   33   34 1
    56   33   52 1
    57   33   53 1
    58   34   54 1
    59   34   55 1
@<TRIPOS>MOLECULE
ZINC67195877
   45    45     0     0     0
SMALL
USER_CHARGES

@<TRIPOS>ATOM
      1 C1          0.3973   -0.4896    1.3255 C.3       1 <0>         0.0238
      2 O1          0.0456   -0.0059    0.0276 O.3       1 <0>        -0.3074
      3 C2          0.6394   -0.6082   -1.0377 C.ar      1 <0>         0.1076
      4 C3          1.5364   -1.6460   -0.8360 C.ar      1 <0>        -0.1720
      5 C4          2.1397   -2.2586   -1.9171 C.ar      1 <0>        -0.0391
      6 C5          1.8482   -1.8356   -3.2071 C.ar      1 <0>         0.1132
      7 C6          0.9501   -0.7965   -3.4102 C.ar      1 <0>        -0.1176
      8 C7          0.3426   -0.1872   -2.3277 C.ar      1 <0>         0.0759
      9 F1         -0.5356    0.8203   -2.5244 F         1 <0>        -0.1273
     10 N1          2.4605   -2.4568   -4.3033 N.pl3     1 <0>        -0.6280
     11 C8          2.5991   -3.7972   -4.3275 C.2       1 <0>         0.5541
     12 S1          1.9023   -4.7523   -3.0892 S.2       1 <0>        -0.5641
     13 N2          3.2861   -4.3857   -5.3265 N.pl3     1 <0>        -0.4581
     14 N3          3.8563   -3.6041   -6.3399 N.am      1 <0>        -0.5539
     15 C9          4.5433   -4.1927   -7.3389 C.2       1 <0>         0.5048
     16 O2          4.6680   -5.3989   -7.3607 O.2       1 <0>        -0.4740
     17 C10         5.1566   -3.3520   -8.4289 C.3       1 <0>         0.1765
     18 H1          5.5824   -2.4476   -7.9942 H         1 <0>         0.1210
     19 C11         4.0792   -2.9705   -9.4460 C.3       1 <0>        -0.1235
     20 C12         4.6727   -2.0157  -10.4838 C.3       1 <0>        -0.0816
     21 S2          3.3952   -1.5634  -11.6897 S.3       1 <0>        -0.2551
     22 C13         4.2486   -0.4442  -12.8341 C.3       1 <0>        -0.1216
     23 N4          6.2123   -4.1154   -9.0990 N.am      1 <0>        -0.7347
     24 C14         5.9169   -5.2787   -9.7122 C.2       1 <0>         0.7101
     25 O3          4.7744   -5.6945   -9.7093 O.2       1 <0>        -0.5609
     26 N5          6.8881   -5.9811  -10.3286 N.am      1 <0>        -0.8653
     27 H2          0.1365   -1.5451    1.4028 H         1 <0>         0.0616
     28 H3          1.4694   -0.3680    1.4803 H         1 <0>         0.0599
     29 H4         -0.1456    0.0753    2.0832 H         1 <0>         0.1051
     30 H5          1.7639   -1.9754    0.1671 H         1 <0>         0.1464
     31 H6          2.8385   -3.0667   -1.7590 H         1 <0>         0.1534
     32 H7          0.7233   -0.4667   -4.4133 H         1 <0>         0.1459
     33 H8          2.7847   -1.9222   -5.0450 H         1 <0>         0.4019
     34 H9          3.3859   -5.3504   -5.3439 H         1 <0>         0.4620
     35 H10         3.7565   -2.6394   -6.3225 H         1 <0>         0.4185
     36 H11         3.7159   -3.8690   -9.9448 H         1 <0>         0.1126
     37 H12         3.2520   -2.4804   -8.9325 H         1 <0>         0.0861
     38 H13         5.0359   -1.1172   -9.9851 H         1 <0>         0.0828
     39 H14         5.4998   -2.5058  -10.9973 H         1 <0>         0.0840
     40 H15         4.6207    0.4214  -12.2860 H         1 <0>         0.0772
     41 H16         5.0846   -0.9673  -13.2982 H         1 <0>         0.0767
     42 H17         3.5531   -0.1140  -13.6057 H         1 <0>         0.1044
     43 H18         7.1238   -3.7837   -9.1013 H         1 <0>         0.4053
     44 H19         7.7996   -5.6493  -10.3309 H         1 <0>         0.3957
     45 H20         6.6755   -6.8183  -10.7700 H         1 <0>         0.4180
@<TRIPOS>BOND
     1    1    2 1
     2    1   27 1
     3    1   28 1
     4    1   29 1
     5    2    3 1
     6    3    8 ar
     7    3    4 ar
     8    4    5 ar
     9    4   30 1
    10    5    6 ar
    11    5   31 1
    12    6    7 ar
    13    6   10 1
    14    7    8 ar
    15    7   32 1
    16    8    9 1
    17   10   11 1
    18   10   33 1
    19   11   12 2
    20   11   13 1
    21   13   14 1
    22   13   34 1
    23   14   15 am
    24   14   35 1
    25   15   16 2
    26   15   17 1
    27   17   18 1
    28   17   19 1
    29   17   23 1
    30   19   20 1
    31   19   36 1
    32   19   37 1
    33   20   21 1
    34   20   38 1
    35   20   39 1
    36   21   22 1
    37   22   40 1
    38   22   41 1
    39   22   42 1
    40   23   24 am
    41   23   43 1
    42   24   25 2
    43   24   26 am
    44   26   44 1
    45   26   45 1
@<TRIPOS>MOLECULE
ZINC37890878
   42    42     0     0     0
SMALL
USER_CHARGES

@<TRIPOS>ATOM
      1 C1         -0.0184    1.5028    0.0103 C.3       1 <0>        -0.1171
      2 C2          0.0021   -0.0041    0.0020 C.ar      1 <0>        -0.1053
      3 C3          0.0057   -0.6877   -1.2000 C.ar      1 <0>        -0.0885
      4 C4          0.0240   -2.0688   -1.2103 C.ar      1 <0>        -0.1996
      5 C5          0.0391   -2.7702   -0.0132 C.ar      1 <0>         0.1081
      6 C6          0.0359   -2.0821    1.1912 C.ar      1 <0>        -0.1015
      7 C7          0.0229   -0.7005    1.1961 C.ar      1 <0>        -0.0831
      8 C8          0.0523   -2.8407    2.4932 C.3       1 <0>        -0.1094
      9 O1          0.0567   -4.1291   -0.0207 O.3       1 <0>        -0.2985
     10 C9          0.0584   -4.7708   -1.2975 C.3       1 <0>         0.0307
     11 C10         0.0790   -6.2886   -1.1053 C.3       1 <0>         0.0868
     12 H1          0.9277   -6.5641   -0.4792 H         1 <0>         0.1373
     13 C11         0.2067   -6.9734   -2.4676 C.3       1 <0>        -0.0451
     14 N1          0.2265   -8.4306   -2.2831 N.4       1 <0>        -0.4890
     15 C12         0.3490   -9.0881   -3.5910 C.3       1 <0>         0.0041
     16 H2          1.2271   -8.7038   -4.1100 H         1 <0>         0.1686
     17 C13        -0.9018   -8.8026   -4.4246 C.3       1 <0>        -0.1838
     18 C14         0.4928  -10.5753   -3.3941 C.2       1 <0>         0.5099
     19 O2          0.4931  -11.0415   -2.2745 O.2       1 <0>        -0.5242
     20 N2          0.6210  -11.3872   -4.4622 N.am      1 <0>        -0.8230
     21 O3         -1.1335   -6.7054   -0.4744 O.3       1 <0>        -0.5407
     22 H3          1.0042    1.8801    0.0026 H         1 <0>         0.0730
     23 H4         -0.5455    1.8639   -0.8728 H         1 <0>         0.0681
     24 H5         -0.5286    1.8543    0.9071 H         1 <0>         0.0695
     25 H6         -0.0061   -0.1413   -2.1315 H         1 <0>         0.1273
     26 H7          0.0261   -2.6023   -2.1493 H         1 <0>         0.1233
     27 H8          0.0245   -0.1642    2.1335 H         1 <0>         0.1337
     28 H9          1.0838   -3.0100    2.8021 H         1 <0>         0.0704
     29 H10        -0.4655   -2.2615    3.2577 H         1 <0>         0.0692
     30 H11        -0.4495   -3.7993    2.3615 H         1 <0>         0.0701
     31 H12        -0.8381   -4.4865   -1.8483 H         1 <0>         0.0759
     32 H13         0.9417   -4.4635   -1.8574 H         1 <0>         0.0809
     33 H14        -0.6420   -6.6979   -3.0937 H         1 <0>         0.1433
     34 H15         1.1316   -6.6555   -2.9488 H         1 <0>         0.1500
     35 H16         1.0120   -8.6857   -1.7035 H         1 <0>         0.4386
     36 H17        -1.7799   -9.1870   -3.9055 H         1 <0>         0.0926
     37 H18        -1.0058   -7.7270   -4.5670 H         1 <0>         0.0975
     38 H19        -0.8109   -9.2905   -5.3950 H         1 <0>         0.1136
     39 H20         0.6207  -11.0143   -5.3577 H         1 <0>         0.4130
     40 H21         0.7135  -12.3444   -4.3355 H         1 <0>         0.4257
     41 H22        -1.9317   -6.4922   -0.9769 H         1 <0>         0.3893
     42 H23        -0.6297   -8.7249   -1.8376 H         1 <0>         0.4385
@<TRIPOS>BOND
     1    1    2 1
     2    1   22 1
     3    1   23 1
     4    1   24 1
     5    2    7 ar
     6    2    3 ar
     7    3    4 ar
     8    3   25 1
     9    4    5 ar
    10    4   26 1
    11    5    6 ar
    12    5    9 1
    13    6    7 ar
    14    6    8 1
    15    7   27 1
    16    8   28 1
    17    8   29 1
    18    8   30 1
    19    9   10 1
    20   10   11 1
    21   10   31 1
    22   10   32 1
    23   11   12 1
    24   11   13 1
    25   11   21 1
    26   13   14 1
    27   13   33 1
    28   13   34 1
    29   14   15 1
    30   14   35 1
    31   14   42 1
    32   15   16 1
    33   15   17 1
    34   15   18 1
    35   17   36 1
    36   17   37 1
    37   17   38 1
    38   18   19 2
    39   18   20 am
    40   20   39 1
    41   20   40 1
    42   21   41 1
@<TRIPOS>MOLECULE
ZINC42878881
   44    45     0     0     0
SMALL
USER_CHARGES

@<TRIPOS>ATOM
      1 C1         -0.0187    1.5258    0.0104 C.3       1 <0>        -0.1750
      2 C2          0.0021   -0.0041    0.0020 C.3       1 <0>        -0.1464
      3 C3         -1.4333   -0.5336    0.0129 C.3       1 <0>         0.0315
      4 H1         -1.9862   -0.1019   -0.8214 H         1 <0>         0.1446
      5 C4         -1.4157   -2.0577   -0.1212 C.3       1 <0>        -0.0809
      6 C5         -2.8290   -2.5684   -0.2340 C.ar      1 <0>        -0.1628
      7 C6         -3.4993   -3.0000    0.8956 C.ar      1 <0>        -0.0819
      8 C7         -4.7983   -3.4695    0.7954 C.ar      1 <0>         0.0063
      9 C8         -5.4297   -3.5072   -0.4457 C.ar      1 <0>         0.0979
     10 C9         -4.7565   -3.0737   -1.5757 C.ar      1 <0>        -0.1863
     11 C10        -3.4574   -2.5996   -1.4696 C.ar      1 <0>         0.1659
     12 O1         -2.7982   -2.1694   -2.5783 O.3       1 <0>        -0.3045
     13 C11        -3.5062   -2.2296   -3.8182 C.3       1 <0>         0.0715
     14 C12        -2.6099   -1.7080   -4.9431 C.3       1 <0>        -0.1109
     15 H2         -1.6734   -2.2657   -4.9498 H         1 <0>         0.1144
     16 C13        -2.3177   -0.2235   -4.7155 C.3       1 <0>        -0.1447
     17 C14        -3.3096   -1.8852   -6.2660 C.2       1 <0>         0.5244
     18 O2         -4.4161   -2.3801   -6.3052 O.2       1 <0>        -0.5388
     19 N1         -2.7056   -1.4938   -7.4055 N.am      1 <0>        -0.8476
     20 O3         -6.6897   -4.0052   -0.2793 O.3       1 <0>        -0.2986
     21 C15        -6.6807   -4.6530    1.0065 C.3       1 <0>         0.2121
     22 O4         -5.6639   -3.9445    1.7394 O.3       1 <0>        -0.3035
     23 N2         -2.0833   -0.1607    1.2764 N.4       1 <0>        -0.6390
     24 H3          1.0039    1.9031    0.0027 H         1 <0>         0.0836
     25 H4         -0.5459    1.8868   -0.8726 H         1 <0>         0.0722
     26 H5         -0.5289    1.8773    0.9072 H         1 <0>         0.0516
     27 H6          0.5123   -0.3556   -0.8948 H         1 <0>         0.1140
     28 H7          0.5293   -0.3651    0.8851 H         1 <0>         0.0900
     29 H8         -0.8559   -2.3374   -1.0137 H         1 <0>         0.1265
     30 H9         -0.9406   -2.4942    0.7573 H         1 <0>         0.0998
     31 H10        -3.0093   -2.9707    1.8576 H         1 <0>         0.1445
     32 H11        -5.2440   -3.1022   -2.5390 H         1 <0>         0.1523
     33 H12        -3.7869   -3.2621   -4.0265 H         1 <0>         0.0818
     34 H13        -4.4039   -1.6148   -3.7542 H         1 <0>         0.0792
     35 H14        -1.6792    0.1482   -5.5169 H         1 <0>         0.0688
     36 H15        -3.2542    0.3343   -4.7089 H         1 <0>         0.0643
     37 H16        -1.8117   -0.0953   -3.7587 H         1 <0>         0.0723
     38 H17        -1.8206   -1.0980   -7.3742 H         1 <0>         0.4043
     39 H18        -3.1560   -1.6079   -8.2570 H         1 <0>         0.4098
     40 H19        -7.6491   -4.5472    1.4955 H         1 <0>         0.1429
     41 H20        -6.4156   -5.7052    0.9034 H         1 <0>         0.0955
     42 H21        -1.5715   -0.5604    2.0487 H         1 <0>         0.4318
     43 H22        -2.0949    0.8443    1.3648 H         1 <0>         0.4336
     44 H23        -3.0299   -0.5100    1.2835 H         1 <0>         0.4335
@<TRIPOS>BOND
     1    1    2 1
     2    1   24 1
     3    1   25 1
     4    1   26 1
     5    2    3 1
     6    2   27 1
     7    2   28 1
     8    3    4 1
     9    3    5 1
    10    3   23 1
    11    5    6 1
    12    5   29 1
    13    5   30 1
    14    6   11 ar
    15    6    7 ar
    16    7    8 ar
    17    7   31 1
    18    8   22 1
    19    8    9 ar
    20    9   10 ar
    21    9   20 1
    22   10   11 ar
    23   10   32 1
    24   11   12 1
    25   12   13 1
    26   13   14 1
    27   13   33 1
    28   13   34 1
    29   14   15 1
    30   14   16 1
    31   14   17 1
    32   16   35 1
    33   16   36 1
    34   16   37 1
    35   17   18 2
    36   17   19 am
    37   19   38 1
    38   19   39 1
    39   20   21 1
    40   21   22 1
    41   21   40 1
    42   21   41 1
    43   23   42 1
    44   23   43 1
    45   23   44 1
@<TRIPOS>MOLECULE
ZINC45559348
   37    37     0     0     0
SMALL
USER_CHARGES

@<TRIPOS>ATOM
      1 C1         -0.0187    1.5258    0.0104 C.3       1 <0>        -0.1808
      2 C2          0.0021   -0.0041    0.0020 C.3       1 <0>         0.0497
      3 C3          0.7421   -0.5109    1.2415 C.3       1 <0>        -0.1262
      4 C4          2.1775    0.0187    1.2307 C.3       1 <0>        -0.1225
      5 C5          2.9174   -0.4882    2.4702 C.3       1 <0>        -0.1087
      6 S1          4.6193    0.1397    2.4573 S.3       1 <0>        -0.0509
      7 C6          5.3291   -0.5227    3.9277 C.ar      1 <0>         0.1407
      8 C7          6.6529   -0.2328    4.2459 C.ar      1 <0>        -0.1482
      9 C8          7.1970   -0.7593    5.4029 C.ar      1 <0>        -0.0028
     10 C9          6.3969   -1.5614    6.2067 C.ar      1 <0>        -0.2391
     11 C10         5.0919   -1.8078    5.8305 C.ar      1 <0>         0.1739
     12 N1          4.5968   -1.2877    4.7233 N.ar      1 <0>        -0.4904
     13 C11         6.9482   -2.1569    7.4765 C.3       1 <0>         0.5166
     14 F1          6.7248   -1.2759    8.5401 F         1 <0>        -0.1704
     15 F2          6.3091   -3.3738    7.7368 F         1 <0>        -0.1721
     16 F3          8.3227   -2.3737    7.3314 F         1 <0>        -0.1717
     17 C12        -1.4117   -0.5257    0.0127 C.2       1 <0>         0.5082
     18 O1         -1.9390   -0.8271    1.0625 O.2       1 <0>        -0.4711
     19 N2         -2.0902   -0.6573   -1.1443 N.am      1 <0>        -0.8482
     20 N3          0.6897   -0.4778   -1.2066 N.4       1 <0>        -0.6349
     21 H1          1.0039    1.9031    0.0027 H         1 <0>         0.1037
     22 H2         -0.5459    1.8868   -0.8726 H         1 <0>         0.0908
     23 H3         -0.5289    1.8773    0.9072 H         1 <0>         0.1185
     24 H4          0.2319   -0.1594    2.1383 H         1 <0>         0.1305
     25 H5          0.7568   -1.6008    1.2356 H         1 <0>         0.1015
     26 H6          2.6876   -0.3328    0.3339 H         1 <0>         0.0702
     27 H7          2.1627    1.1086    1.2367 H         1 <0>         0.0967
     28 H8          2.4073   -0.1366    3.3670 H         1 <0>         0.1053
     29 H9          2.9322   -1.5780    2.4642 H         1 <0>         0.1013
     30 H10         7.2469    0.3945    3.5979 H         1 <0>         0.1552
     31 H11         8.2213   -0.5519    5.6753 H         1 <0>         0.1590
     32 H12         4.4665   -2.4309    6.4527 H         1 <0>         0.1753
     33 H13        -1.6686   -0.4162   -1.9840 H         1 <0>         0.3963
     34 H14        -3.0003   -0.9930   -1.1375 H         1 <0>         0.4284
     35 H15         1.6363   -0.1286   -1.2138 H         1 <0>         0.4423
     36 H16         0.7033   -1.4867   -1.2121 H         1 <0>         0.4412
     37 H17         0.2017   -0.1436   -2.0240 H         1 <0>         0.4326
@<TRIPOS>BOND
     1    1    2 1
     2    1   21 1
     3    1   22 1
     4    1   23 1
     5    2    3 1
     6    2   17 1
     7    2   20 1
     8    3    4 1
     9    3   24 1
    10    3   25 1
    11    4    5 1
    12    4   26 1
    13    4   27 1
    14    5    6 1
    15    5   28 1
    16    5   29 1
    17    6    7 1
    18    7   12 ar
    19    7    8 ar
    20    8    9 ar
    21    8   30 1
    22    9   10 ar
    23    9   31 1
    24   10   11 ar
    25   10   13 1
    26   11   12 ar
    27   11   32 1
    28   13   14 1
    29   13   15 1
    30   13   16 1
    31   17   18 2
    32   17   19 am
    33   19   33 1
    34   19   34 1
    35   20   35 1
    36   20   36 1
    37   20   37 1
@<TRIPOS>MOLECULE
ZINC53870590
   52    52     0     0     0
SMALL
USER_CHARGES

@<TRIPOS>ATOM
      1 C1          0.4611    1.3310    0.4111 C.3       1 <0>        -0.1472
      2 C2          0.5417   -0.1969    0.4057 C.3       1 <0>        -0.0601
      3 C3          1.4800   -0.6620    1.5212 C.3       1 <0>        -0.1493
      4 C4         -0.8531   -0.7820    0.6356 C.3       1 <0>        -0.1487
      5 C5          1.0790   -0.6745   -0.9449 C.3       1 <0>        -0.0828
      6 H1          0.4105   -0.3431   -1.7395 H         1 <0>         0.0737
      7 C6          1.1596   -2.2024   -0.9502 C.3       1 <0>        -0.1190
      8 C7          1.6969   -2.6800   -2.3009 C.3       1 <0>        -0.1385
      9 C8          3.0917   -2.0948   -2.5307 C.3       1 <0>         0.0305
     10 H2          3.7602   -2.4261   -1.7360 H         1 <0>         0.1436
     11 C9          3.0111   -0.5669   -2.5253 C.3       1 <0>        -0.1096
     12 H3          2.3426   -0.2356   -3.3200 H         1 <0>         0.0915
     13 C10         2.4738   -0.0893   -1.1747 C.3       1 <0>        -0.0999
     14 C11         4.4059    0.0182   -2.7552 C.3       1 <0>         0.0358
     15 N1          4.3233    1.4846   -2.7830 N.3       1 <0>        -0.5182
     16 C12         5.6584    2.0849   -2.9063 C.3       1 <0>         0.0451
     17 C13         6.3696    2.0291   -1.5528 C.3       1 <0>         0.0797
     18 O1          6.6494    0.6685   -1.2174 O.3       1 <0>        -0.5823
     19 C14         3.4388    1.9417   -3.8631 C.3       1 <0>         0.0423
     20 C15         2.9535    3.3604   -3.5590 C.3       1 <0>         0.0795
     21 O2          4.0610    4.2624   -3.6028 O.3       1 <0>        -0.5726
     22 N2          3.6075   -2.5534   -3.8275 N.4       1 <0>        -0.6397
     23 H4          1.4548    1.7479    0.2474 H         1 <0>         0.0596
     24 H5         -0.2074    1.6623   -0.3836 H         1 <0>         0.0544
     25 H6          0.0783    1.6712    1.3733 H         1 <0>         0.0582
     26 H7          1.0973   -0.3217    2.4834 H         1 <0>         0.0582
     27 H8          1.5375   -1.7504    1.5173 H         1 <0>         0.0560
     28 H9          2.4738   -0.2451    1.3574 H         1 <0>         0.0582
     29 H10        -1.5216   -0.4507   -0.1591 H         1 <0>         0.0554
     30 H11        -0.7957   -1.8705    0.6317 H         1 <0>         0.0569
     31 H12        -1.2359   -0.4418    1.5978 H         1 <0>         0.0594
     32 H13         1.8281   -2.5337   -0.1556 H         1 <0>         0.0789
     33 H14         0.1659   -2.6192   -0.7865 H         1 <0>         0.0869
     34 H15         1.7543   -3.7684   -2.3047 H         1 <0>         0.0880
     35 H16         1.0284   -2.3486   -3.0955 H         1 <0>         0.0855
     36 H17         2.4164    0.9991   -1.1709 H         1 <0>         0.0980
     37 H18         3.1423   -0.4207   -0.3801 H         1 <0>         0.0771
     38 H19         5.0682   -0.2931   -1.9473 H         1 <0>         0.1195
     39 H20         4.7988   -0.3417   -3.7061 H         1 <0>         0.0164
     40 H21         6.2387    1.5317   -3.6447 H         1 <0>         0.0384
     41 H22         5.5620    3.1232   -3.2236 H         1 <0>         0.1249
     42 H23         7.3033    2.5887   -1.6096 H         1 <0>         0.0526
     43 H24         5.7292    2.4677   -0.7875 H         1 <0>         0.0570
     44 H25         7.1008    0.5573   -0.3695 H         1 <0>         0.3818
     45 H26         3.9855    1.9390   -4.8061 H         1 <0>         0.0462
     46 H27         2.5815    1.2727   -3.9383 H         1 <0>         0.0853
     47 H28         2.2129    3.6580   -4.3014 H         1 <0>         0.0517
     48 H29         2.5035    3.3855   -2.5665 H         1 <0>         0.0568
     49 H30         3.8411    5.1681   -3.3452 H         1 <0>         0.3854
     50 H31         2.9888   -2.2467   -4.5631 H         1 <0>         0.4309
     51 H32         4.5274   -2.1675   -3.9790 H         1 <0>         0.4336
     52 H33         3.6607   -3.5610   -3.8310 H         1 <0>         0.4354
@<TRIPOS>BOND
     1    1    2 1
     2    1   23 1
     3    1   24 1
     4    1   25 1
     5    2    3 1
     6    2    4 1
     7    2    5 1
     8    3   26 1
     9    3   27 1
    10    3   28 1
    11    4   29 1
    12    4   30 1
    13    4   31 1
    14    5    6 1
    15    5   13 1
    16    5    7 1
    17    7    8 1
    18    7   32 1
    19    7   33 1
    20    8    9 1
    21    8   34 1
    22    8   35 1
    23    9   10 1
    24    9   11 1
    25    9   22 1
    26   11   12 1
    27   11   13 1
    28   11   14 1
    29   13   36 1
    30   13   37 1
    31   14   15 1
    32   14   38 1
    33   14   39 1
    34   15   16 1
    35   15   19 1
    36   16   17 1
    37   16   40 1
    38   16   41 1
    39   17   18 1
    40   17   42 1
    41   17   43 1
    42   18   44 1
    43   19   20 1
    44   19   45 1
    45   19   46 1
    46   20   21 1
    47   20   47 1
    48   20   48 1
    49   21   49 1
    50   22   50 1
    51   22   51 1
    52   22   52 1
@<TRIPOS>MOLECULE
ZINC62731434
   42    42     0     0     0
SMALL
USER_CHARGES

@<TRIPOS>ATOM
      1 C1         -0.0187    1.5258    0.0104 C.3       1 <0>        -0.1528
      2 C2          0.0021   -0.0041    0.0020 C.3       1 <0>        -0.1185
      3 C3          0.7421   -0.5109    1.2415 C.3       1 <0>        -0.1721
      4 C4         -1.4333   -0.5336    0.0129 C.3       1 <0>        -0.0086
      5 N1         -1.4164   -1.9969   -0.1159 N.4       1 <0>        -0.5100
      6 C5         -2.7945   -2.5054   -0.1054 C.3       1 <0>         0.0464
      7 C6         -2.7771   -4.0065   -0.2375 C.ar      1 <0>        -0.1247
      8 C7         -2.8110   -4.5902   -1.4907 C.ar      1 <0>        -0.1306
      9 C8         -2.7952   -5.9669   -1.6152 C.ar      1 <0>        -0.0698
     10 C9         -2.7459   -6.7632   -0.4872 C.ar      1 <0>        -0.1787
     11 C10        -2.7119   -6.1802    0.7710 C.ar      1 <0>         0.1385
     12 C11        -2.7217   -4.7980    0.8930 C.ar      1 <0>        -0.1245
     13 O1         -2.6634   -6.9613    1.8820 O.3       1 <0>        -0.2843
     14 C12        -2.6500   -8.3759    1.6804 C.3       1 <0>         0.0422
     15 C13        -2.5951   -9.0730    3.0154 C.2       1 <0>         0.5184
     16 O2         -2.5700   -8.4227    4.0382 O.2       1 <0>        -0.4375
     17 N2         -2.5741  -10.4194    3.0721 N.am      1 <0>        -0.6872
     18 C14        -2.5250  -11.0429    4.2660 C.2       1 <0>         0.6982
     19 O3         -2.4998  -10.3910    5.2914 O.2       1 <0>        -0.5275
     20 N3         -2.5039  -12.3893    4.3228 N.am      1 <0>        -0.8520
     21 H1          1.0039    1.9031    0.0027 H         1 <0>         0.0777
     22 H2         -0.5459    1.8868   -0.8726 H         1 <0>         0.0680
     23 H3         -0.5289    1.8773    0.9072 H         1 <0>         0.0685
     24 H4          0.5123   -0.3556   -0.8948 H         1 <0>         0.0937
     25 H5          0.2319   -0.1594    2.1383 H         1 <0>         0.0735
     26 H6          0.7568   -1.6008    1.2356 H         1 <0>         0.0519
     27 H7          1.7647   -0.1336    1.2338 H         1 <0>         0.0834
     28 H8         -1.9156   -0.2570    0.9504 H         1 <0>         0.1336
     29 H9         -1.9862   -0.1019   -0.8214 H         1 <0>         0.1342
     30 H10        -0.9699   -2.2530   -0.9837 H         1 <0>         0.4273
     31 H11        -3.2768   -2.2287    0.8321 H         1 <0>         0.1407
     32 H12        -3.3474   -2.0736   -0.9397 H         1 <0>         0.1422
     33 H13        -2.8502   -3.9694   -2.3736 H         1 <0>         0.1352
     34 H14        -2.8217   -6.4204   -2.5950 H         1 <0>         0.1412
     35 H15        -2.7343   -7.8387   -0.5850 H         1 <0>         0.1411
     36 H16        -2.6905   -4.3416    1.8714 H         1 <0>         0.1428
     37 H17        -3.5541   -8.6760    1.1507 H         1 <0>         0.1067
     38 H18        -1.7753   -8.6507    1.0909 H         1 <0>         0.1060
     39 H19        -2.5942  -10.9397    2.2537 H         1 <0>         0.4131
     40 H20        -2.5240  -12.9096    3.5044 H         1 <0>         0.4021
     41 H21        -2.4686  -12.8380    5.1820 H         1 <0>         0.4254
     42 H22        -0.9046   -2.3966    0.6564 H         1 <0>         0.4269
@<TRIPOS>BOND
     1    1    2 1
     2    1   21 1
     3    1   22 1
     4    1   23 1
     5    2    3 1
     6    2    4 1
     7    2   24 1
     8    3   25 1
     9    3   26 1
    10    3   27 1
    11    4    5 1
    12    4   28 1
    13    4   29 1
    14    5    6 1
    15    5   30 1
    16    5   42 1
    17    6    7 1
    18    6   31 1
    19    6   32 1
    20    7   12 ar
    21    7    8 ar
    22    8    9 ar
    23    8   33 1
    24    9   10 ar
    25    9   34 1
    26   10   11 ar
    27   10   35 1
    28   11   12 ar
    29   11   13 1
    30   12   36 1
    31   13   14 1
    32   14   15 1
    33   14   37 1
    34   14   38 1
    35   15   16 2
    36   15   17 am
    37   17   18 am
    38   17   39 1
    39   18   19 2
    40   18   20 am
    41   20   40 1
    42   20   41 1
@<TRIPOS>MOLECULE
ZINC20911233
   65    67     0     0     0
SMALL
USER_CHARGES
2-[[5-[(N'E)-N'-[(1-isopropylpyrazol-4-yl)methylene]hydrazino]-4H-1,2,4-triazol-3-yl]sulfanyl]-N-(2,2,6,6-tetramethyl-4-piperidyl)acetamide
@<TRIPOS>ATOM
      1 C1          1.7303    3.7219   -1.4316 C.3       1 <0>        -0.1682
      2 C2          1.7091    3.1901    0.0029 C.3       1 <0>         0.1501
      3 C3          0.7458    4.0300    0.8440 C.3       1 <0>        -0.1695
      4 N1          1.2647    1.7941   -0.0004 N.pl3     1 <0>        -0.3529
      5 C4         -0.0166    1.3737    0.0096 C.2       1 <0>         0.1021
      6 C5          0.0021   -0.0041    0.0020 C.2       1 <0>        -0.2194
      7 C6          1.3553   -0.4050   -0.0131 C.2       1 <0>         0.0861
      8 N2          2.0975    0.6694   -0.0144 N.2       1 <0>        -0.2947
      9 C7         -1.1747   -0.8953    0.0080 C.2       1 <0>         0.1789
     10 N3         -1.0135   -2.1829   -0.0004 N.2       1 <0>        -0.2738
     11 N4         -2.1303   -3.0287    0.0053 N.pl3     1 <0>        -0.5610
     12 C8         -1.9580   -4.4051   -0.0036 C.2       1 <0>         0.5498
     13 N5         -2.9557   -5.3400    0.0005 N.2       1 <0>        -0.5559
     14 C9         -2.3754   -6.5768   -0.0115 C.2       1 <0>         0.2066
     15 N6         -1.0741   -6.4139   -0.0225 N.2       1 <0>        -0.3327
     16 N7         -0.8100   -5.0380   -0.0233 N.pl3     1 <0>        -0.4765
     17 S1         -3.2259   -8.1199   -0.0128 S.3       1 <0>         0.1109
     18 C10        -1.8964   -9.3538   -0.0312 C.3       1 <0>        -0.1675
     19 C11        -2.4947  -10.7370   -0.0339 C.2       1 <0>         0.5453
     20 O1         -3.6994  -10.8766   -0.0243 O.2       1 <0>        -0.5157
     21 N8         -1.6910  -11.8188   -0.0469 N.am      1 <0>        -0.7390
     22 C12        -2.2740  -13.1665   -0.0495 C.3       1 <0>         0.1422
     23 C13        -2.5437  -13.6010    1.3908 C.3       1 <0>        -0.1439
     24 C14        -3.1298  -15.0103    1.4204 C.3       1 <0>         0.0690
     25 N9         -2.3764  -15.9533    0.6206 N.4       1 <0>        -0.5132
     26 C15        -1.8512  -15.5595   -0.6701 C.3       1 <0>         0.0561
     27 C16        -1.2786  -14.1443   -0.6735 C.3       1 <0>        -0.1396
     28 C17        -2.9187  -15.6832   -1.7638 C.3       1 <0>        -0.1810
     29 C18        -0.7041  -16.5263   -1.0396 C.3       1 <0>        -0.1799
     30 C19        -4.5990  -14.9635    0.9840 C.3       1 <0>        -0.1760
     31 C20        -3.1043  -15.4939    2.8876 C.3       1 <0>        -0.1776
     32 H1          2.4229    3.1180   -2.0363 H         1 <0>         0.0678
     33 H2          2.0640    4.7701   -1.4292 H         1 <0>         0.0837
     34 H3          0.7193    3.6599   -1.8606 H         1 <0>         0.0653
     35 H4          2.7194    3.2078    0.4377 H         1 <0>         0.1092
     36 H5          0.7306    3.6477    1.8753 H         1 <0>         0.0696
     37 H6         -0.2652    3.9680    0.4150 H         1 <0>         0.0692
     38 H7          1.0795    5.0782    0.8464 H         1 <0>         0.0891
     39 H8         -0.8955    2.0012    0.0174 H         1 <0>         0.1834
     40 H9          1.7144   -1.4235   -0.0223 H         1 <0>         0.1873
     41 H10        -2.1882   -0.4680    0.0196 H         1 <0>         0.1280
     42 H11        -3.1438   -2.6014    0.0168 H         1 <0>         0.4354
     43 H12        -1.2826   -9.2180   -0.9339 H         1 <0>         0.1257
     44 H13        -1.2672   -9.2282    0.8623 H         1 <0>         0.1252
     45 H14        -0.5983  -11.6922   -0.0556 H         1 <0>         0.4311
     46 H15        -3.2057  -13.1205   -0.6325 H         1 <0>         0.1072
     47 H16        -1.6017  -13.5927    1.9588 H         1 <0>         0.0911
     48 H17        -3.2583  -12.9059    1.8558 H         1 <0>         0.1133
     49 H18        -1.4861  -16.2785    1.1789 H         1 <0>         0.4428
     50 H19        -1.0710  -13.8439   -1.7111 H         1 <0>         0.1144
     51 H20        -0.3432  -14.1345   -0.0948 H         1 <0>         0.0955
     52 H21        -2.4907  -15.3779   -2.7300 H         1 <0>         0.1043
     53 H22        -3.7717  -15.0333   -1.5188 H         1 <0>         0.0824
     54 H23        -3.2595  -16.7272   -1.8272 H         1 <0>         0.0847
     55 H24        -0.2890  -16.2455   -2.0188 H         1 <0>         0.1073
     56 H25        -1.0921  -17.5545   -1.0870 H         1 <0>         0.0854
     57 H26         0.0855  -16.4672   -0.2760 H         1 <0>         0.0825
     58 H27        -5.0204  -15.9793    1.0056 H         1 <0>         0.0813
     59 H28        -4.6654  -14.5606   -0.0374 H         1 <0>         0.0818
     60 H29        -5.1650  -14.3170    1.6707 H         1 <0>         0.1055
     61 H30        -3.5212  -16.5102    2.9460 H         1 <0>         0.0829
     62 H31        -3.7067  -14.8142    3.5082 H         1 <0>         0.1056
     63 H32        -2.0668  -15.5016    3.2531 H         1 <0>         0.0804
     64 H33         0.1314   -4.4692   -0.0368 H         1 <0>         0.4765
     65 H34        -3.0057  -16.8264    0.3933 H         1 <0>         0.4462
@<TRIPOS>BOND
     1    1    2 1
     2    1   32 1
     3    1   33 1
     4    1   34 1
     5    2    3 1
     6    2    4 1
     7    2   35 1
     8    3   36 1
     9    3   37 1
    10    3   38 1
    11    4    8 1
    12    4    5 1
    13    5    6 2
    14    5   39 1
    15    6    7 1
    16    6    9 1
    17    7    8 2
    18    7   40 1
    19    9   10 2
    20    9   41 1
    21   10   11 1
    22   11   12 1
    23   11   42 1
    24   12   16 1
    25   12   13 2
    26   13   14 1
    27   14   15 2
    28   14   17 1
    29   15   16 1
    30   16   64 1
    31   17   18 1
    32   18   19 1
    33   18   43 1
    34   18   44 1
    35   19   20 2
    36   19   21 am
    37   21   22 1
    38   21   45 1
    39   22   27 1
    40   22   23 1
    41   22   46 1
    42   23   24 1
    43   23   47 1
    44   23   48 1
    45   24   25 1
    46   24   30 1
    47   24   31 1
    48   25   26 1
    49   25   49 1
    50   25   65 1
    51   26   27 1
    52   26   28 1
    53   26   29 1
    54   27   50 1
    55   27   51 1
    56   28   52 1
    57   28   53 1
    58   28   54 1
    59   29   55 1
    60   29   56 1
    61   29   57 1
    62   30   58 1
    63   30   59 1
    64   30   60 1
    65   31   61 1
    66   31   62 1
    67   31   63 1
@<TRIPOS>MOLECULE
ZINC47998778
   45    45     0     0     0
SMALL
USER_CHARGES

@<TRIPOS>ATOM
      1 C1          0.1874    1.9844   -1.7962 C.3       1 <0>        -0.1867
      2 C2         -0.0375    0.5114   -2.1437 C.3       1 <0>        -0.0223
      3 N1          0.8699   -0.3240   -1.3458 N.4       1 <0>        -0.3880
      4 C3          0.5085   -0.2212    0.0744 C.3       1 <0>        -0.0203
      5 C4          1.5395   -0.9728    0.9187 C.3       1 <0>        -0.1910
      6 C5          0.7565   -1.7228   -1.7798 C.3       1 <0>         0.0094
      7 H1          1.3514   -2.3567   -1.1223 H         1 <0>         0.1509
      8 C6         -0.7089   -2.1584   -1.7193 C.3       1 <0>        -0.1811
      9 C7          1.2688   -1.8544   -3.2155 C.3       1 <0>         0.0939
     10 N2          2.6288   -1.3163   -3.3000 N.am      1 <0>        -0.7255
     11 C8          3.2456   -1.2282   -4.4950 C.2       1 <0>         0.5252
     12 O1          2.6744   -1.5947   -5.5013 O.2       1 <0>        -0.4734
     13 C9          4.6316   -0.6799   -4.5811 C.2       1 <0>         0.4980
     14 O2          5.2029   -0.3135   -3.5748 O.2       1 <0>        -0.4857
     15 N3          5.2484   -0.5918   -5.7762 N.am      1 <0>        -0.5739
     16 C10         6.5333   -0.0835   -5.8559 C.2       1 <0>         0.0546
     17 C11         7.3151    0.0855   -6.9903 C.2       1 <0>        -0.2435
     18 C12         8.6323    0.6431   -6.7896 C.2       1 <0>        -0.1050
     19 C13         8.9569    0.9386   -5.5165 C.2       1 <0>        -0.2344
     20 S1          7.5005    0.4765   -4.6046 S.3       1 <0>         0.2883
     21 C14         6.8290   -0.2835   -8.3239 C.2       1 <0>         0.5869
     22 O3          5.7134   -0.7514   -8.4570 O.2       1 <0>        -0.5603
     23 N4          7.6177   -0.1044   -9.4020 N.am      1 <0>        -0.8435
     24 H2         -0.1139    2.1644   -0.7643 H         1 <0>         0.0828
     25 H3          1.2432    2.2284   -1.9143 H         1 <0>         0.0792
     26 H4         -0.4068    2.6097   -2.4625 H         1 <0>         0.1079
     27 H5         -1.0698    0.2396   -1.9232 H         1 <0>         0.1370
     28 H6          0.1613    0.3537   -3.2037 H         1 <0>         0.1298
     29 H7          0.4919    0.8278    0.3700 H         1 <0>         0.1356
     30 H8         -0.4776   -0.6584    0.2309 H         1 <0>         0.1343
     31 H9          1.5995   -2.0079    0.5825 H         1 <0>         0.0795
     32 H10         2.5146   -0.4981    0.8090 H         1 <0>         0.0826
     33 H11         1.2391   -0.9478    1.9662 H         1 <0>         0.1094
     34 H12        -1.0739   -2.0646   -0.6965 H         1 <0>         0.0913
     35 H13        -1.3038   -1.5245   -2.3769 H         1 <0>         0.0884
     36 H14        -0.7931   -3.1963   -2.0414 H         1 <0>         0.1119
     37 H15         1.2753   -2.9055   -3.5041 H         1 <0>         0.1219
     38 H16         0.6153   -1.2974   -3.8869 H         1 <0>         0.1056
     39 H17         3.0853   -1.0235   -2.4958 H         1 <0>         0.4092
     40 H18         4.7919   -0.8847   -6.5804 H         1 <0>         0.4460
     41 H19         9.3146    0.8122   -7.6095 H         1 <0>         0.1497
     42 H20         9.8778    1.3589   -5.1402 H         1 <0>         0.1959
     43 H21         8.5068    0.2686   -9.2960 H         1 <0>         0.4038
     44 H22         7.2962   -0.3484  -10.2841 H         1 <0>         0.4086
     45 H23         1.8193   -0.0076   -1.4750 H         1 <0>         0.4171
@<TRIPOS>BOND
     1    1    2 1
     2    1   24 1
     3    1   25 1
     4    1   26 1
     5    2    3 1
     6    2   27 1
     7    2   28 1
     8    3    4 1
     9    3    6 1
    10    3   45 1
    11    4    5 1
    12    4   29 1
    13    4   30 1
    14    5   31 1
    15    5   32 1
    16    5   33 1
    17    6    7 1
    18    6    8 1
    19    6    9 1
    20    8   34 1
    21    8   35 1
    22    8   36 1
    23    9   10 1
    24    9   37 1
    25    9   38 1
    26   10   11 am
    27   10   39 1
    28   11   12 2
    29   11   13 1
    30   13   14 2
    31   13   15 am
    32   15   16 1
    33   15   40 1
    34   16   20 1
    35   16   17 2
    36   17   18 1
    37   17   21 1
    38   18   19 2
    39   18   41 1
    40   19   20 1
    41   19   42 1
    42   21   22 2
    43   21   23 am
    44   23   43 1
    45   23   44 1
@<TRIPOS>MOLECULE
ZINC61596758
   55    56     0     0     0
SMALL
USER_CHARGES

@<TRIPOS>ATOM
      1 C1          1.1355    1.7683    0.0027 C.3       1 <0>        -0.1259
      2 C2          0.8677    0.2896    0.1156 C.ar      1 <0>        -0.1061
      3 C3          0.3628   -0.4062   -0.9656 C.ar      1 <0>        -0.1405
      4 C4          0.1169   -1.7629   -0.8628 C.ar      1 <0>        -0.1105
      5 C5          0.3756   -2.4277    0.3221 C.ar      1 <0>        -0.0918
      6 C6          0.8808   -1.7380    1.4065 C.ar      1 <0>        -0.0991
      7 C7          1.1335   -0.3760    1.3049 C.ar      1 <0>         0.1706
      8 N1          1.6503    0.3248    2.4002 N.am      1 <0>        -0.6751
      9 C8          1.4767   -0.1527    3.6485 C.2       1 <0>         0.5012
     10 O1          0.7903   -1.1357    3.8318 O.2       1 <0>        -0.4651
     11 C9          2.1355    0.5348    4.8166 C.3       1 <0>         0.1644
     12 C10         1.3154    1.7638    5.2138 C.3       1 <0>        -0.1195
     13 C11         2.0479    2.5312    6.3162 C.3       1 <0>        -0.0829
     14 S1          1.0756    3.9884    6.7871 S.3       1 <0>        -0.2592
     15 C12         2.0677    4.7774    8.0847 C.3       1 <0>        -0.1203
     16 N2          2.2086   -0.3906    5.9500 N.am      1 <0>        -0.7372
     17 C13         1.0787   -0.9078    6.4716 C.2       1 <0>         0.7122
     18 O2         -0.0014   -0.6065    6.0016 O.2       1 <0>        -0.5661
     19 N3          1.1460   -1.7592    7.5143 N.am      1 <0>        -0.8652
     20 C14         0.0794    0.3142   -2.2585 C.3       1 <0>         0.0448
     21 N4         -1.1803    1.0601   -2.1375 N.4       1 <0>        -0.3902
     22 C15        -2.2829    0.1136   -1.9567 C.3       1 <0>        -0.0164
     23 C16        -3.5300    0.8552   -1.4610 C.3       1 <0>        -0.1248
     24 S2         -4.0212    2.0595   -2.7344 S.3       1 <0>        -0.1909
     25 C17        -2.4599    2.9263   -3.0863 C.3       1 <0>        -0.1277
     26 C18        -1.3729    1.8749   -3.3388 C.3       1 <0>        -0.0133
     27 H1          2.1788    1.9288   -0.2691 H         1 <0>         0.0917
     28 H2          0.4902    2.1969   -0.7641 H         1 <0>         0.0493
     29 H3          0.9313    2.2487    0.9595 H         1 <0>         0.0828
     30 H4         -0.2785   -2.3045   -1.7093 H         1 <0>         0.1344
     31 H5          0.1821   -3.4874    0.3993 H         1 <0>         0.1397
     32 H6          1.0823   -2.2577    2.3315 H         1 <0>         0.1577
     33 H7          2.1336    1.1543    2.2610 H         1 <0>         0.4133
     34 H8          3.1419    0.8449    4.5352 H         1 <0>         0.1182
     35 H9          1.1859    2.4102    4.3457 H         1 <0>         0.0817
     36 H10         0.3389    1.4463    5.5794 H         1 <0>         0.1104
     37 H11         2.1775    1.8848    7.1843 H         1 <0>         0.0840
     38 H12         3.0245    2.8487    5.9507 H         1 <0>         0.0821
     39 H13         2.1968    4.0838    8.9156 H         1 <0>         0.0781
     40 H14         3.0438    5.0477    7.6820 H         1 <0>         0.0780
     41 H15         1.5586    5.6748    8.4363 H         1 <0>         0.1057
     42 H16         3.0703   -0.6310    6.3250 H         1 <0>         0.4052
     43 H17         2.0076   -1.9996    7.8893 H         1 <0>         0.3968
     44 H18         0.3327   -2.1314    7.8897 H         1 <0>         0.4184
     45 H19         0.8927    1.0073   -2.4741 H         1 <0>         0.1399
     46 H20        -0.0040   -0.4111   -3.0679 H         1 <0>         0.1418
     47 H21        -2.5038   -0.3711   -2.9078 H         1 <0>         0.1442
     48 H22        -1.9957   -0.6415   -1.2249 H         1 <0>         0.1460
     49 H23        -4.3393    0.1439   -1.2962 H         1 <0>         0.1543
     50 H24        -3.3024    1.3760   -0.5309 H         1 <0>         0.1091
     51 H25        -2.5783    3.5523   -3.9707 H         1 <0>         0.1552
     52 H26        -2.1821    3.5444   -2.2324 H         1 <0>         0.1094
     53 H27        -0.4376    2.3744   -3.5914 H         1 <0>         0.1445
     54 H28        -1.6747    1.2336   -4.1669 H         1 <0>         0.1452
     55 H29        -1.1299    1.6655   -1.3319 H         1 <0>         0.4175
@<TRIPOS>BOND
     1    1    2 1
     2    1   27 1
     3    1   28 1
     4    1   29 1
     5    2    7 ar
     6    2    3 ar
     7    3    4 ar
     8    3   20 1
     9    4    5 ar
    10    4   30 1
    11    5    6 ar
    12    5   31 1
    13    6    7 ar
    14    6   32 1
    15    7    8 1
    16    8    9 am
    17    8   33 1
    18    9   10 2
    19    9   11 1
    20   11   12 1
    21   11   16 1
    22   11   34 1
    23   12   13 1
    24   12   35 1
    25   12   36 1
    26   13   14 1
    27   13   37 1
    28   13   38 1
    29   14   15 1
    30   15   39 1
    31   15   40 1
    32   15   41 1
    33   16   17 am
    34   16   42 1
    35   17   18 2
    36   17   19 am
    37   19   43 1
    38   19   44 1
    39   20   21 1
    40   20   45 1
    41   20   46 1
    42   21   26 1
    43   21   22 1
    44   21   55 1
    45   22   23 1
    46   22   47 1
    47   22   48 1
    48   23   24 1
    49   23   49 1
    50   23   50 1
    51   24   25 1
    52   25   26 1
    53   25   51 1
    54   25   52 1
    55   26   53 1
    56   26   54 1
@<TRIPOS>MOLECULE
ZINC58209959
   45    46     0     0     0
SMALL
USER_CHARGES

@<TRIPOS>ATOM
      1 C1          0.9097    2.0052   -0.1426 C.3       1 <0>        -0.1532
      2 C2          0.8100    0.4784   -0.1402 C.3       1 <0>        -0.1436
      3 C3          1.5175   -0.0808   -1.3762 C.3       1 <0>         0.0893
      4 N1          1.4221   -1.5427   -1.3739 N.am      1 <0>        -0.5369
      5 C4          2.3943   -2.2758   -0.7552 C.2       1 <0>         0.5821
      6 C5          2.2938   -3.6779   -0.7579 C.2       1 <0>        -0.4678
      7 C6          1.1375   -4.2818   -1.4325 C.2       1 <0>         0.5896
      8 O1          0.9992   -5.4907   -1.4656 O.2       1 <0>        -0.5200
      9 N2          0.2317   -3.4689   -2.0143 N.am      1 <0>        -0.6568
     10 H1         -0.5373   -3.8531   -2.4637 H         1 <0>         0.4419
     11 C7          0.3782   -2.1346   -1.9750 C.2       1 <0>         0.7130
     12 O2         -0.4630   -1.4374   -2.5076 O.2       1 <0>        -0.5011
     13 C8          3.2728   -4.4794   -0.1328 C.2       1 <0>         0.4341
     14 O3          4.1615   -3.9602    0.5120 O.2       1 <0>        -0.5008
     15 C9          3.2155   -5.9794   -0.2653 C.3       1 <0>        -0.0356
     16 N3          4.3367   -6.5792    0.4703 N.4       1 <0>        -0.3488
     17 C10         4.3509   -8.0305    0.2432 C.3       1 <0>        -0.0039
     18 C11         4.6690   -8.3137   -1.2263 C.3       1 <0>         0.0431
     19 O4          5.9939   -7.8670   -1.5215 O.3       1 <0>        -0.5803
     20 C12         4.1805   -6.3097    1.9059 C.3       1 <0>        -0.0794
     21 C13         5.2517   -5.4536    2.5845 C.3       1 <0>        -0.1280
     22 C14         5.1864   -6.9572    2.8597 C.3       1 <0>        -0.1623
     23 N4          3.4433   -1.6590   -0.1466 N.pl3     1 <0>        -0.7808
     24 H2          1.9586    2.3008   -0.1257 H         1 <0>         0.0608
     25 H3          0.4357    2.3988   -1.0418 H         1 <0>         0.0664
     26 H4          0.4056    2.4035    0.7379 H         1 <0>         0.0702
     27 H5          1.2840    0.0848    0.7590 H         1 <0>         0.0682
     28 H6         -0.2390    0.1827   -0.1571 H         1 <0>         0.0808
     29 H7          1.0435    0.3128   -2.2754 H         1 <0>         0.1243
     30 H8          2.5665    0.2149   -1.3593 H         1 <0>         0.0982
     31 H9          2.2744   -6.3448    0.1456 H         1 <0>         0.1668
     32 H10         3.2832   -6.2540   -1.3180 H         1 <0>         0.1594
     33 H11         5.1115   -8.4896    0.8747 H         1 <0>         0.1385
     34 H12         3.3741   -8.4465    0.4902 H         1 <0>         0.1448
     35 H13         4.5965   -9.3850   -1.4138 H         1 <0>         0.0974
     36 H14         3.9575   -7.7849   -1.8605 H         1 <0>         0.0729
     37 H15         6.2366   -7.9449   -2.4543 H         1 <0>         0.4075
     38 H16         3.1536   -6.2015    2.2549 H         1 <0>         0.1691
     39 H17         6.0723   -5.0904    1.9658 H         1 <0>         0.1199
     40 H18         4.9296   -4.7818    3.3802 H         1 <0>         0.1272
     41 H19         4.8213   -7.2747    3.8365 H         1 <0>         0.1309
     42 H20         5.9640   -7.5832    2.4221 H         1 <0>         0.1175
     43 H21         3.5496   -0.6977   -0.2199 H         1 <0>         0.4147
     44 H22         4.0847   -2.1807    0.3607 H         1 <0>         0.4420
     45 H23         5.2043   -6.1795    0.1454 H         1 <0>         0.4287
@<TRIPOS>BOND
     1    1    2 1
     2    1   24 1
     3    1   25 1
     4    1   26 1
     5    2    3 1
     6    2   27 1
     7    2   28 1
     8    3    4 1
     9    3   29 1
    10    3   30 1
    11    4   11 am
    12    4    5 1
    13    5    6 2
    14    5   23 1
    15    6    7 1
    16    6   13 1
    17    7    8 2
    18    7    9 am
    19    9   10 1
    20    9   11 am
    21   11   12 2
    22   13   14 2
    23   13   15 1
    24   15   16 1
    25   15   31 1
    26   15   32 1
    27   16   17 1
    28   16   20 1
    29   16   45 1
    30   17   18 1
    31   17   33 1
    32   17   34 1
    33   18   19 1
    34   18   35 1
    35   18   36 1
    36   19   37 1
    37   20   22 1
    38   20   21 1
    39   20   38 1
    40   21   22 1
    41   21   39 1
    42   21   40 1
    43   22   41 1
    44   22   42 1
    45   23   43 1
    46   23   44 1
@<TRIPOS>MOLECULE
ZINC67264591
   55    55     0     0     0
SMALL
USER_CHARGES

@<TRIPOS>ATOM
      1 C1          0.4590    1.6090   -0.6463 C.3       1 <0>        -0.1549
      2 C2          0.3869    0.0842   -0.5424 C.3       1 <0>        -0.1238
      3 C3          1.1269   -0.5431   -1.7256 C.3       1 <0>        -0.1143
      4 C4          1.0548   -2.0678   -1.6218 C.3       1 <0>        -0.1346
      5 C5          1.7948   -2.6951   -2.8049 C.3       1 <0>         0.1578
      6 H1          1.3878   -2.3032   -3.7371 H         1 <0>         0.1109
      7 C6          1.6201   -4.1916   -2.7704 C.2       1 <0>         0.5033
      8 O1          2.5036   -4.8952   -2.3285 O.2       1 <0>        -0.4904
      9 N1          0.4820   -4.7480   -3.2305 N.am      1 <0>        -0.7346
     10 C7          0.3122   -6.2027   -3.1970 C.3       1 <0>         0.1391
     11 C8         -0.2208   -6.6245   -1.8247 C.3       1 <0>        -0.1611
     12 C9         -0.4710   -8.1341   -1.8228 C.3       1 <0>        -0.0026
     13 N2         -1.4564   -8.4718   -2.8570 N.4       1 <0>        -0.3854
     14 C10        -0.9223   -8.1359   -4.1823 C.3       1 <0>        -0.0065
     15 C11        -0.6895   -6.6264   -4.2750 C.3       1 <0>        -0.1546
     16 C12        -1.7512   -9.9097   -2.7995 C.3       1 <0>        -0.0089
     17 C13        -2.8873  -10.2366   -3.7707 C.3       1 <0>        -0.1189
     18 C14        -3.1046  -11.7506   -3.8104 C.3       1 <0>        -0.1524
     19 C15        -4.1717   -9.5492   -3.3030 C.3       1 <0>        -0.1695
     20 N3          3.2201   -2.3677   -2.7185 N.am      1 <0>        -0.7356
     21 C16         3.9365   -2.7545   -1.6444 C.2       1 <0>         0.7138
     22 O2          3.3998   -3.3751   -0.7471 O.2       1 <0>        -0.5706
     23 N4          5.2477   -2.4533   -1.5649 N.am      1 <0>        -0.8674
     24 H2          1.5020    1.9253   -0.6315 H         1 <0>         0.0543
     25 H3         -0.0055    1.9321   -1.5779 H         1 <0>         0.0543
     26 H4         -0.0682    2.0559    0.1966 H         1 <0>         0.0562
     27 H5          0.8514   -0.2389    0.3892 H         1 <0>         0.0619
     28 H6         -0.6561   -0.2321   -0.5572 H         1 <0>         0.0603
     29 H7          0.6624   -0.2200   -2.6572 H         1 <0>         0.0622
     30 H8          2.1699   -0.2268   -1.7108 H         1 <0>         0.0647
     31 H9          1.5192   -2.3910   -0.6901 H         1 <0>         0.0974
     32 H10         0.0118   -2.3841   -1.6366 H         1 <0>         0.0708
     33 H11        -0.2246   -4.1852   -3.5839 H         1 <0>         0.4042
     34 H12         1.2717   -6.6860   -3.3809 H         1 <0>         0.1031
     35 H13         0.5123   -6.3761   -1.0573 H         1 <0>         0.1193
     36 H14        -1.1545   -6.1006   -1.6201 H         1 <0>         0.0897
     37 H15         0.4633   -8.6571   -2.0271 H         1 <0>         0.1318
     38 H16        -0.8504   -8.4378   -0.8471 H         1 <0>         0.1339
     39 H17         0.0216   -8.6588   -4.3364 H         1 <0>         0.1328
     40 H18        -1.6349   -8.4409   -4.9486 H         1 <0>         0.1366
     41 H19        -1.6329   -6.1025   -4.1213 H         1 <0>         0.0938
     42 H20        -0.2913   -6.3793   -5.2592 H         1 <0>         0.1192
     43 H21        -0.8614  -10.4745   -3.0779 H         1 <0>         0.1315
     44 H22        -2.0503  -10.1791   -1.7866 H         1 <0>         0.1324
     45 H23        -2.6269   -9.8807   -4.7675 H         1 <0>         0.0931
     46 H24        -3.3579  -12.1076   -2.8122 H         1 <0>         0.0684
     47 H25        -3.9188  -11.9829   -4.4969 H         1 <0>         0.0776
     48 H26        -2.1918  -12.2398   -4.1505 H         1 <0>         0.0677
     49 H27        -4.0169   -8.4706   -3.2748 H         1 <0>         0.0499
     50 H28        -4.9811   -9.7820   -3.9950 H         1 <0>         0.0836
     51 H29        -4.4321   -9.9051   -2.3063 H         1 <0>         0.0736
     52 H30         3.6483   -1.8726   -3.4344 H         1 <0>         0.4031
     53 H31         5.6759   -1.9582   -2.2808 H         1 <0>         0.3964
     54 H32         5.7633   -2.7316   -0.7919 H         1 <0>         0.4170
     55 H33        -2.3046   -7.9499   -2.6951 H         1 <0>         0.4203
@<TRIPOS>BOND
     1    1    2 1
     2    1   24 1
     3    1   25 1
     4    1   26 1
     5    2    3 1
     6    2   27 1
     7    2   28 1
     8    3    4 1
     9    3   29 1
    10    3   30 1
    11    4    5 1
    12    4   31 1
    13    4   32 1
    14    5    6 1
    15    5    7 1
    16    5   20 1
    17    7    8 2
    18    7    9 am
    19    9   10 1
    20    9   33 1
    21   10   15 1
    22   10   11 1
    23   10   34 1
    24   11   12 1
    25   11   35 1
    26   11   36 1
    27   12   13 1
    28   12   37 1
    29   12   38 1
    30   13   14 1
    31   13   16 1
    32   13   55 1
    33   14   15 1
    34   14   39 1
    35   14   40 1
    36   15   41 1
    37   15   42 1
    38   16   17 1
    39   16   43 1
    40   16   44 1
    41   17   18 1
    42   17   19 1
    43   17   45 1
    44   18   46 1
    45   18   47 1
    46   18   48 1
    47   19   49 1
    48   19   50 1
    49   19   51 1
    50   20   21 am
    51   20   52 1
    52   21   22 2
    53   21   23 am
    54   23   53 1
    55   23   54 1
@<TRIPOS>MOLECULE
ZINC37636660
   38    38     0     0     0
SMALL
USER_CHARGES

@<TRIPOS>ATOM
      1 C1         -0.0173    1.4248    0.0099 C.3       1 <0>         0.0183
      2 O1          0.0021   -0.0041    0.0020 O.3       1 <0>        -0.2930
      3 C2         -1.2004   -0.6375    0.0101 C.ar      1 <0>         0.1870
      4 C3         -2.3747    0.1009    0.0195 C.ar      1 <0>        -0.1941
      5 C4         -3.5957   -0.5452    0.0278 C.ar      1 <0>        -0.0286
      6 C5         -3.6485   -1.9270    0.0266 C.ar      1 <0>        -0.1867
      7 C6         -2.4801   -2.6658    0.0172 C.ar      1 <0>        -0.0535
      8 C7         -1.2557   -2.0243    0.0032 C.ar      1 <0>        -0.1251
      9 Br1         0.3423   -3.0352   -0.0181 Br        1 <0>        -0.0062
     10 C8         -4.9821   -2.6288    0.0362 C.3       1 <0>         0.0934
     11 H1         -5.7560   -1.9429   -0.3086 H         1 <0>         0.1515
     12 C9         -5.3058   -3.0895    1.4588 C.3       1 <0>        -0.1446
     13 C10        -6.7125   -3.6903    1.4926 C.3       1 <0>        -0.1350
     14 C11        -7.0363   -4.1511    2.9152 C.3       1 <0>        -0.1084
     15 C12        -8.4430   -4.7519    2.9490 C.3       1 <0>        -0.1444
     16 C13        -8.7618   -5.2057    4.3502 C.2       1 <0>         0.5117
     17 O2         -7.9444   -5.0627    5.2347 O.2       1 <0>        -0.5418
     18 N1         -9.9553   -5.7705    4.6205 N.am      1 <0>        -0.8556
     19 N2         -4.9283   -3.7947   -0.8559 N.4       1 <0>        -0.6389
     20 H2          1.0053    1.8021    0.0021 H         1 <0>         0.1155
     21 H3         -0.5445    1.7859   -0.8732 H         1 <0>         0.0654
     22 H4         -0.5275    1.7763    0.9067 H         1 <0>         0.0659
     23 H5         -2.3344    1.1801    0.0208 H         1 <0>         0.1510
     24 H6         -4.5101    0.0295    0.0355 H         1 <0>         0.1443
     25 H7         -2.5240   -3.7449    0.0167 H         1 <0>         0.1352
     26 H8         -4.5817   -3.8422    1.7705 H         1 <0>         0.0928
     27 H9         -5.2584   -2.2371    2.1364 H         1 <0>         0.1167
     28 H10        -7.4367   -2.9376    1.1808 H         1 <0>         0.0820
     29 H11        -6.7600   -4.5427    0.8149 H         1 <0>         0.0599
     30 H12        -6.3121   -4.9038    3.2269 H         1 <0>         0.0772
     31 H13        -6.9889   -3.2986    3.5928 H         1 <0>         0.0806
     32 H14        -9.1671   -3.9992    2.6373 H         1 <0>         0.0971
     33 H15        -8.4904   -5.6043    2.2714 H         1 <0>         0.0947
     34 H16       -10.6090   -5.8849    3.9131 H         1 <0>         0.4030
     35 H17       -10.1605   -6.0626    5.5224 H         1 <0>         0.4061
     36 H18        -5.8212   -4.2645   -0.8495 H         1 <0>         0.4362
     37 H19        -4.7148   -3.4908   -1.7940 H         1 <0>         0.4388
     38 H20        -4.2119   -4.4295   -0.5367 H         1 <0>         0.4312
@<TRIPOS>BOND
     1    1    2 1
     2    1   20 1
     3    1   21 1
     4    1   22 1
     5    2    3 1
     6    3    8 ar
     7    3    4 ar
     8    4    5 ar
     9    4   23 1
    10    5    6 ar
    11    5   24 1
    12    6    7 ar
    13    6   10 1
    14    7    8 ar
    15    7   25 1
    16    8    9 1
    17   10   11 1
    18   10   12 1
    19   10   19 1
    20   12   13 1
    21   12   26 1
    22   12   27 1
    23   13   14 1
    24   13   28 1
    25   13   29 1
    26   14   15 1
    27   14   30 1
    28   14   31 1
    29   15   16 1
    30   15   32 1
    31   15   33 1
    32   16   17 2
    33   16   18 am
    34   18   34 1
    35   18   35 1
    36   19   36 1
    37   19   37 1
    38   19   38 1
@<TRIPOS>MOLECULE
ZINC42429266
   41    41     0     0     0
SMALL
USER_CHARGES

@<TRIPOS>ATOM
      1 C1          0.1966    0.7323    0.5799 C.3       1 <0>        -0.1499
      2 C2          0.1712   -0.7700    0.2912 C.3       1 <0>        -0.0922
      3 C3          0.8427   -1.0390   -1.0308 C.ar      1 <0>        -0.0631
      4 C4          0.1007   -1.0315   -2.1971 C.ar      1 <0>        -0.1020
      5 C5          0.7166   -1.2782   -3.4098 C.ar      1 <0>        -0.0710
      6 C6          2.0747   -1.5319   -3.4562 C.ar      1 <0>        -0.1042
      7 C7          2.8169   -1.5385   -2.2900 C.ar      1 <0>        -0.1429
      8 C8          2.2017   -1.2876   -1.0778 C.ar      1 <0>        -0.1050
      9 C9          2.7460   -1.8018   -4.7782 C.3       1 <0>         0.0306
     10 C10         2.1170   -3.0364   -5.4269 C.3       1 <0>        -0.1234
     11 C11         2.2989   -4.2449   -4.5064 C.3       1 <0>        -0.1703
     12 C12         2.5668   -0.6115   -5.6849 C.2       1 <0>         0.5043
     13 O1          3.5291    0.0714   -5.9917 O.co2     1 <0>        -0.6741
     14 O2          1.4596   -0.3314   -6.1116 O.co2     1 <0>        -0.6056
     15 N1          4.1791   -2.0398   -4.5600 N.4       1 <0>        -0.4757
     16 C13         4.8065   -2.4441   -5.8252 C.3       1 <0>        -0.0503
     17 C14         6.2902   -2.7335   -5.5892 C.3       1 <0>        -0.0275
     18 N2          6.9176   -3.1378   -6.8544 N.4       1 <0>        -0.6278
     19 H1          1.2298    1.0770    0.6204 H         1 <0>         0.0557
     20 H2         -0.3329    1.2632   -0.2112 H         1 <0>         0.0588
     21 H3         -0.2892    0.9268    1.5361 H         1 <0>         0.0644
     22 H4          0.7006   -1.3010    1.0824 H         1 <0>         0.0757
     23 H5         -0.8621   -1.1148    0.2507 H         1 <0>         0.0782
     24 H6         -0.9604   -0.8333   -2.1608 H         1 <0>         0.1340
     25 H7          0.1368   -1.2730   -4.3209 H         1 <0>         0.1443
     26 H8          3.8779   -1.7370   -2.3263 H         1 <0>         0.1033
     27 H9          2.7822   -1.2890   -0.1671 H         1 <0>         0.1296
     28 H10         1.0536   -2.8598   -5.5888 H         1 <0>         0.1198
     29 H11         2.6025   -3.2316   -6.3831 H         1 <0>         0.0787
     30 H12         3.3623   -4.4215   -4.3445 H         1 <0>         0.0375
     31 H13         1.8133   -4.0497   -3.5503 H         1 <0>         0.0774
     32 H14         1.8508   -5.1244   -4.9686 H         1 <0>         0.0810
     33 H15         4.6135   -1.1930   -4.2247 H         1 <0>         0.4358
     34 H16         4.3169   -3.3417   -6.2030 H         1 <0>         0.1459
     35 H17         4.7046   -1.6404   -6.5545 H         1 <0>         0.1739
     36 H18         6.7798   -1.8359   -5.2114 H         1 <0>         0.1552
     37 H19         6.3922   -3.5372   -4.8599 H         1 <0>         0.1485
     38 H20         6.4644   -3.9687   -7.2041 H         1 <0>         0.4417
     39 H21         6.8233   -2.3938   -7.5295 H         1 <0>         0.4474
     40 H22         4.2982   -2.7723   -3.8764 H         1 <0>         0.4118
     41 H23         7.8961   -3.3286   -6.6987 H         1 <0>         0.4513
@<TRIPOS>BOND
     1    1    2 1
     2    1   19 1
     3    1   20 1
     4    1   21 1
     5    2    3 1
     6    2   22 1
     7    2   23 1
     8    3    8 ar
     9    3    4 ar
    10    4    5 ar
    11    4   24 1
    12    5    6 ar
    13    5   25 1
    14    6    7 ar
    15    6    9 1
    16    7    8 ar
    17    7   26 1
    18    8   27 1
    19    9   10 1
    20    9   12 1
    21    9   15 1
    22   10   11 1
    23   10   28 1
    24   10   29 1
    25   11   30 1
    26   11   31 1
    27   11   32 1
    28   12   13 2
    29   12   14 1
    30   15   16 1
    31   15   33 1
    32   15   40 1
    33   16   17 1
    34   16   34 1
    35   16   35 1
    36   17   18 1
    37   17   36 1
    38   17   37 1
    39   18   38 1
    40   18   39 1
    41   18   41 1
@<TRIPOS>MOLECULE
ZINC44474570
   46    47     0     0     0
SMALL
USER_CHARGES

@<TRIPOS>ATOM
      1 C1         -0.0187    1.5258    0.0104 C.3       1 <0>        -0.1516
      2 C2          0.0021   -0.0041    0.0020 C.3       1 <0>        -0.1138
      3 C3          0.7421   -0.5109    1.2415 C.3       1 <0>        -0.0541
      4 H1          1.7350   -0.0630    1.2804 H         1 <0>         0.0904
      5 C4          0.8719   -2.0337    1.1708 C.3       1 <0>        -0.1445
      6 C5         -0.0298   -0.1295    2.4784 C.ar      1 <0>        -0.0917
      7 C6         -1.3211   -0.5875    2.6562 C.ar      1 <0>        -0.0596
      8 C7         -2.0299   -0.2375    3.7903 C.ar      1 <0>        -0.1865
      9 C8         -1.4486    0.5712    4.7497 C.ar      1 <0>        -0.0765
     10 C9         -0.1578    1.0313    4.5769 C.ar      1 <0>        -0.2031
     11 C10         0.5576    0.6772    3.4419 C.ar      1 <0>         0.1557
     12 O1          1.8297    1.1240    3.2722 O.3       1 <0>        -0.3017
     13 C11         2.3702    1.9505    4.3051 C.3       1 <0>         0.0912
     14 C12         3.8006    2.3527    3.9403 C.3       1 <0>        -0.1639
     15 C13         4.9266    1.8646    4.8540 C.3       1 <0>        -0.1732
     16 C14         4.5155    3.3382    4.8669 C.3       1 <0>        -0.1662
     17 C15        -3.4386   -0.7378    3.9812 C.3       1 <0>         0.1160
     18 H2         -3.6034   -1.6099    3.3485 H         1 <0>         0.1123
     19 C16        -4.4277    0.3648    3.5978 C.3       1 <0>         0.0005
     20 N1         -5.7958   -0.0792    3.8964 N.4       1 <0>        -0.6307
     21 N2         -3.6401   -1.1086    5.3883 N.3       1 <0>        -0.8556
     22 H3          1.0039    1.9031    0.0027 H         1 <0>         0.0573
     23 H4         -0.5459    1.8868   -0.8726 H         1 <0>         0.0547
     24 H5         -0.5289    1.8773    0.9072 H         1 <0>         0.0481
     25 H6         -1.0205   -0.3814    0.0098 H         1 <0>         0.0589
     26 H7          0.5123   -0.3556   -0.8948 H         1 <0>         0.0702
     27 H8          1.4302   -2.3096    0.2763 H         1 <0>         0.0640
     28 H9          1.3991   -2.3948    2.0539 H         1 <0>         0.0565
     29 H10        -0.1210   -2.4817    1.1320 H         1 <0>         0.0535
     30 H11        -1.7773   -1.2192    1.9084 H         1 <0>         0.1314
     31 H12        -2.0045    0.8435    5.6347 H         1 <0>         0.1214
     32 H13         0.2957    1.6629    5.3264 H         1 <0>         0.1330
     33 H14         1.7573    2.8455    4.4124 H         1 <0>         0.0686
     34 H15         2.3764    1.3994    5.2455 H         1 <0>         0.0661
     35 H16         4.0120    2.4214    2.8732 H         1 <0>         0.1184
     36 H17         4.6483    1.2569    5.7150 H         1 <0>         0.0968
     37 H18         5.8790    1.6118    4.3880 H         1 <0>         0.1018
     38 H19         5.1975    4.0550    4.4095 H         1 <0>         0.1046
     39 H20         3.9667    3.7001    5.7364 H         1 <0>         0.0975
     40 H21        -4.2056    1.2666    4.1683 H         1 <0>         0.1313
     41 H22        -4.3392    0.5778    2.5325 H         1 <0>         0.1393
     42 H23        -6.0013   -0.9140    3.3683 H         1 <0>         0.4346
     43 H24        -5.8777   -0.2764    4.8826 H         1 <0>         0.4406
     44 H25        -3.0429   -1.8793    5.6482 H         1 <0>         0.3729
     45 H26        -3.4930   -0.3164    5.9957 H         1 <0>         0.3499
     46 H27        -6.4481    0.6479    3.6435 H         1 <0>         0.4351
@<TRIPOS>BOND
     1    1    2 1
     2    1   22 1
     3    1   23 1
     4    1   24 1
     5    2    3 1
     6    2   25 1
     7    2   26 1
     8    3    4 1
     9    3    5 1
    10    3    6 1
    11    5   27 1
    12    5   28 1
    13    5   29 1
    14    6   11 ar
    15    6    7 ar
    16    7    8 ar
    17    7   30 1
    18    8    9 ar
    19    8   17 1
    20    9   10 ar
    21    9   31 1
    22   10   11 ar
    23   10   32 1
    24   11   12 1
    25   12   13 1
    26   13   14 1
    27   13   33 1
    28   13   34 1
    29   14   16 1
    30   14   15 1
    31   14   35 1
    32   15   16 1
    33   15   36 1
    34   15   37 1
    35   16   38 1
    36   16   39 1
    37   17   18 1
    38   17   19 1
    39   17   21 1
    40   19   20 1
    41   19   40 1
    42   19   41 1
    43   20   42 1
    44   20   43 1
    45   20   46 1
    46   21   44 1
    47   21   45 1
@<TRIPOS>MOLECULE
ZINC51120741
   48    48     0     0     0
SMALL
USER_CHARGES

@<TRIPOS>ATOM
      1 C1         -0.0144    1.4973    0.0299 C.3       1 <0>        -0.1697
      2 C2         -0.0031   -0.0325    0.0096 C.3       1 <0>         0.1472
      3 H1         -1.0281   -0.4035    0.0113 H         1 <0>         0.1023
      4 C3          0.7298   -0.5535    1.2474 C.3       1 <0>        -0.1582
      5 C4          0.6336   -2.0799    1.2923 C.3       1 <0>        -0.0146
      6 N1          1.3373   -2.5801    2.4808 N.4       1 <0>        -0.3864
      7 C5          1.1441   -4.0323    2.5891 C.3       1 <0>        -0.0480
      8 C6          2.7713   -2.2845    2.3613 C.3       1 <0>        -0.0544
      9 N2          0.6834   -0.4998   -1.1972 N.am      1 <0>        -0.7150
     10 C7          0.0046   -0.6182   -2.3555 C.2       1 <0>         0.5963
     11 O1         -1.1770   -0.3373   -2.3989 O.2       1 <0>        -0.5366
     12 C8          0.6982   -1.0903   -3.5748 C.ar      1 <0>         0.0103
     13 C9         -0.0179   -1.3270   -4.7582 C.ar      1 <0>         0.1834
     14 C10         0.6908   -1.7714   -5.8779 C.ar      1 <0>         0.0988
     15 N3          1.9948   -1.9502   -5.7811 N.ar      1 <0>        -0.4427
     16 C11         2.6340   -1.7168   -4.6500 C.ar      1 <0>         0.2554
     17 N4          2.0148   -1.2932   -3.5710 N.ar      1 <0>        -0.4519
     18 C12         4.1237   -1.9382   -4.5958 C.3       1 <0>        -0.0146
     19 C13         4.4338   -3.4013   -4.9181 C.3       1 <0>        -0.1432
     20 C14         4.8114   -1.0334   -5.6202 C.3       1 <0>        -0.1452
     21 N5         -1.3909   -1.1259   -4.8150 N.pl3     1 <0>        -0.5494
     22 N6         -2.0845   -1.4635   -5.9423 N.3       1 <0>        -0.6090
     23 H2          1.0105    1.8683    0.0283 H         1 <0>         0.0648
     24 H3         -0.5366    1.8686   -0.8519 H         1 <0>         0.0723
     25 H4         -0.5252    1.8450    0.9279 H         1 <0>         0.0742
     26 H5          1.7776   -0.2568    1.2010 H         1 <0>         0.0968
     27 H6          0.2728   -0.1341    2.1437 H         1 <0>         0.1075
     28 H7         -0.4142   -2.3766    1.3388 H         1 <0>         0.1337
     29 H8          1.0906   -2.4993    0.3960 H         1 <0>         0.1303
     30 H9          1.5425   -4.5193    1.6991 H         1 <0>         0.1220
     31 H10         1.6663   -4.4036    3.4710 H         1 <0>         0.1261
     32 H11         0.0801   -4.2517    2.6778 H         1 <0>         0.1236
     33 H12         2.9147   -1.2070    2.2809 H         1 <0>         0.1247
     34 H13         3.2935   -2.6558    3.2431 H         1 <0>         0.1261
     35 H14         3.1697   -2.7715    1.4713 H         1 <0>         0.1236
     36 H15         1.6265   -0.7240   -1.1627 H         1 <0>         0.4121
     37 H16         0.1787   -1.9661   -6.8086 H         1 <0>         0.1791
     38 H17         4.4902   -1.7006   -3.5972 H         1 <0>         0.0898
     39 H18         4.0673   -3.6390   -5.9168 H         1 <0>         0.0686
     40 H19         5.5113   -3.5615   -4.8789 H         1 <0>         0.0664
     41 H20         3.9439   -4.0459   -4.1884 H         1 <0>         0.0499
     42 H21         4.5904    0.0089   -5.3906 H         1 <0>         0.0525
     43 H22         5.8888   -1.1936   -5.5810 H         1 <0>         0.0669
     44 H23         4.4448   -1.2711   -6.6188 H         1 <0>         0.0682
     45 H24        -1.8572   -0.7457   -4.0542 H         1 <0>         0.4255
     46 H25        -3.0673   -1.2610   -5.8364 H         1 <0>         0.3706
     47 H26        -1.7049   -0.9986   -6.7533 H         1 <0>         0.3425
     48 H27         0.9685   -2.1293    3.3047 H         1 <0>         0.4274
@<TRIPOS>BOND
     1    1    2 1
     2    1   23 1
     3    1   24 1
     4    1   25 1
     5    2    3 1
     6    2    4 1
     7    2    9 1
     8    4    5 1
     9    4   26 1
    10    4   27 1
    11    5    6 1
    12    5   28 1
    13    5   29 1
    14    6    7 1
    15    6    8 1
    16    6   48 1
    17    7   30 1
    18    7   31 1
    19    7   32 1
    20    8   33 1
    21    8   34 1
    22    8   35 1
    23    9   10 am
    24    9   36 1
    25   10   11 2
    26   10   12 1
    27   12   17 ar
    28   12   13 ar
    29   13   14 ar
    30   13   21 1
    31   14   15 ar
    32   14   37 1
    33   15   16 ar
    34   16   17 ar
    35   16   18 1
    36   18   19 1
    37   18   20 1
    38   18   38 1
    39   19   39 1
    40   19   40 1
    41   19   41 1
    42   20   42 1
    43   20   43 1
    44   20   44 1
    45   21   22 1
    46   21   45 1
    47   22   46 1
    48   22   47 1
@<TRIPOS>MOLECULE
ZINC64157937
   53    55     0     0     0
SMALL
USER_CHARGES

@<TRIPOS>ATOM
      1 C1         -0.0187    1.5258    0.0104 C.3       1 <0>        -0.1585
      2 C2          0.0021   -0.0041    0.0020 C.3       1 <0>        -0.1250
      3 C3         -1.4333   -0.5336    0.0129 C.3       1 <0>        -0.1222
      4 C4         -1.4126   -2.0635    0.0045 C.3       1 <0>        -0.0782
      5 C5         -2.8264   -2.5851    0.0152 C.cat     1 <0>         0.3310
      6 N1         -3.5562   -2.8584    1.1181 N.pl3     1 <0>        -0.5102
      7 C6         -4.7778   -3.3075    0.6942 C.2       1 <0>         0.0660
      8 H1         -3.2683   -2.7558    2.0387 H         1 <0>         0.4597
      9 C7         -4.7524   -3.2933   -0.6521 C.2       1 <0>         0.0238
     10 N2         -3.5502   -2.8422   -1.0398 N.pl3     1 <0>        -0.4714
     11 C8         -5.9294   -3.7361    1.5666 C.3       1 <0>         0.1103
     12 N3         -6.7157   -2.5571    1.9537 N.3       1 <0>        -0.5346
     13 C9         -5.9325   -1.6618    2.8148 C.3       1 <0>         0.0550
     14 C10        -6.7274   -0.3809    3.0781 C.3       1 <0>        -0.1429
     15 C11        -8.0536   -0.7389    3.7545 C.3       1 <0>         0.0379
     16 C12        -8.8283   -1.7100    2.8592 C.3       1 <0>        -0.1079
     17 C13        -7.9725   -2.9524    2.6022 C.3       1 <0>         0.0588
     18 N4         -8.8466    0.4810    3.9569 N.3       1 <0>        -0.2791
     19 C14        -8.0942    1.4762    4.7482 C.3       1 <0>         0.0305
     20 C15        -7.9996    2.6806    3.8374 C.2       1 <0>         0.0168
     21 N5         -8.5959    2.3848    2.7489 N.2       1 <0>        -0.1939
     22 N6         -9.1171    1.0931    2.7644 N.pl3     1 <0>        -0.5113
     23 C16        -7.3253    3.9898    4.1575 C.3       1 <0>         0.1482
     24 N7         -7.4537    4.8997    3.0114 N.3       1 <0>        -0.8424
     25 H2          1.0039    1.9031    0.0027 H         1 <0>         0.0655
     26 H3         -0.5459    1.8868   -0.8726 H         1 <0>         0.0577
     27 H4         -0.5289    1.8773    0.9072 H         1 <0>         0.0565
     28 H5          0.5123   -0.3556   -0.8948 H         1 <0>         0.0724
     29 H6          0.5293   -0.3651    0.8851 H         1 <0>         0.0714
     30 H7         -1.9435   -0.1821    0.9097 H         1 <0>         0.0745
     31 H8         -1.9605   -0.1726   -0.8702 H         1 <0>         0.0765
     32 H9         -0.9024   -2.4150   -0.8923 H         1 <0>         0.1251
     33 H10        -0.8854   -2.4246    0.8875 H         1 <0>         0.1230
     34 H11        -5.5600   -3.5894   -1.3053 H         1 <0>         0.2266
     35 H12        -6.5635   -4.4308    1.0158 H         1 <0>         0.1265
     36 H13        -5.5450   -4.2261    2.4611 H         1 <0>         0.0700
     37 H14        -5.7227   -2.1601    3.7613 H         1 <0>         0.0447
     38 H15        -4.9939   -1.4116    2.3203 H         1 <0>         0.0589
     39 H16        -6.1524    0.2767    3.7300 H         1 <0>         0.0706
     40 H17        -6.9257    0.1251    2.1332 H         1 <0>         0.0784
     41 H18        -7.8560   -1.2100    4.7173 H         1 <0>         0.0929
     42 H19        -9.7542   -2.0020    3.3546 H         1 <0>         0.0881
     43 H20        -9.0596   -1.2250    1.9108 H         1 <0>         0.0731
     44 H21        -8.5155   -3.6396    1.9533 H         1 <0>         0.0911
     45 H22        -7.7531   -3.4446    3.5496 H         1 <0>         0.0476
     46 H23        -8.6371    1.7286    5.6591 H         1 <0>         0.1136
     47 H24        -7.0996    1.1001    4.9877 H         1 <0>         0.0795
     48 H25        -9.6036    0.6846    2.0314 H         1 <0>         0.4479
     49 H26        -7.7978    4.4377    5.0317 H         1 <0>         0.0985
     50 H27        -6.2699    3.8136    4.3651 H         1 <0>         0.0477
     51 H28        -7.0091    5.7854    3.2013 H         1 <0>         0.3506
     52 H29        -7.0805    4.4802    2.1730 H         1 <0>         0.3454
     53 H30        -3.2632   -2.7277   -1.9593 H         1 <0>         0.4651
@<TRIPOS>BOND
     1    1    2 1
     2    1   25 1
     3    1   26 1
     4    1   27 1
     5    2    3 1
     6    2   28 1
     7    2   29 1
     8    3    4 1
     9    3   30 1
    10    3   31 1
    11    4   32 1
    12    4   33 1
    13    4    5 1
    14    5   10 2
    15    5    6 1
    16    6    7 1
    17    6    8 1
    18    7    9 2
    19    7   11 1
    20    9   10 1
    21    9   34 1
    22   10   53 1
    23   11   12 1
    24   11   35 1
    25   11   36 1
    26   12   17 1
    27   12   13 1
    28   13   14 1
    29   13   37 1
    30   13   38 1
    31   14   15 1
    32   14   39 1
    33   14   40 1
    34   15   16 1
    35   15   18 1
    36   15   41 1
    37   16   17 1
    38   16   42 1
    39   16   43 1
    40   17   44 1
    41   17   45 1
    42   18   22 1
    43   18   19 1
    44   19   20 1
    45   19   46 1
    46   19   47 1
    47   20   21 2
    48   20   23 1
    49   21   22 1
    50   22   48 1
    51   23   24 1
    52   23   49 1
    53   23   50 1
    54   24   51 1
    55   24   52 1
@<TRIPOS>MOLECULE
ZINC37817942
   37    36     0     0     0
SMALL
USER_CHARGES

@<TRIPOS>ATOM
      1 C1         -0.0187    1.5258    0.0104 C.3       1 <0>        -0.1542
      2 C2          0.0021   -0.0041    0.0020 C.3       1 <0>        -0.0945
      3 C3          0.7182   -0.4975   -1.2568 C.3       1 <0>        -0.1501
      4 C4          0.7421   -0.5109    1.2415 C.3       1 <0>        -0.1293
      5 C5         -0.0416   -0.1236    2.4973 C.3       1 <0>         0.1052
      6 N1          0.6670   -0.6089    3.6841 N.am      1 <0>        -0.5851
      7 C6          1.6631    0.2410    4.3411 C.3       1 <0>         0.0531
      8 C7          0.4024   -1.8373    4.1716 C.2       1 <0>         0.4984
      9 O1         -0.4222   -2.5409    3.6276 O.2       1 <0>        -0.5171
     10 C8          1.1313   -2.3365    5.3925 C.3       1 <0>         0.0254
     11 H1          2.1771   -2.0337    5.3404 H         1 <0>         0.1723
     12 C9          0.4900   -1.7420    6.6479 C.3       1 <0>        -0.1709
     13 C10         1.2924   -2.1418    7.8593 C.2       1 <0>         0.5171
     14 O2          2.2799   -2.8342    7.7311 O.2       1 <0>        -0.5546
     15 N2          0.9125   -1.7301    9.0851 N.am      1 <0>        -0.8290
     16 N3          1.0481   -3.8021    5.4473 N.4       1 <0>        -0.6193
     17 H2          1.0039    1.9031    0.0027 H         1 <0>         0.0571
     18 H3         -0.5459    1.8868   -0.8726 H         1 <0>         0.0614
     19 H4         -0.5289    1.8773    0.9072 H         1 <0>         0.0544
     20 H5         -1.0205   -0.3814    0.0098 H         1 <0>         0.0742
     21 H6          1.7408   -0.1202   -1.2645 H         1 <0>         0.0560
     22 H7          0.7330   -1.5874   -1.2628 H         1 <0>         0.0547
     23 H8          0.1910   -0.1364   -2.1398 H         1 <0>         0.0612
     24 H9          0.8346   -1.5958    1.1912 H         1 <0>         0.0665
     25 H10         1.7350   -0.0630    1.2804 H         1 <0>         0.0685
     26 H11        -0.1341    0.9613    2.5476 H         1 <0>         0.0957
     27 H12        -1.0345   -0.5716    2.4584 H         1 <0>         0.0946
     28 H13         1.1761    0.8480    5.1043 H         1 <0>         0.0759
     29 H14         2.4248   -0.3849    4.8061 H         1 <0>         0.0766
     30 H15         2.1294    0.8922    3.6018 H         1 <0>         0.0957
     31 H16         0.4718   -0.6552    6.5667 H         1 <0>         0.1474
     32 H17        -0.5289   -2.1161    6.7474 H         1 <0>         0.1329
     33 H18         0.1227   -1.1764    9.1876 H         1 <0>         0.4137
     34 H19         1.4290   -1.9875    9.8648 H         1 <0>         0.4195
     35 H20         0.0800   -4.0825    5.4954 H         1 <0>         0.4379
     36 H21         1.4710   -4.1942    4.6193 H         1 <0>         0.4418
     37 H22         1.5361   -4.1364    6.2647 H         1 <0>         0.4468
@<TRIPOS>BOND
     1    1    2 1
     2    1   17 1
     3    1   18 1
     4    1   19 1
     5    2    3 1
     6    2    4 1
     7    2   20 1
     8    3   21 1
     9    3   22 1
    10    3   23 1
    11    4    5 1
    12    4   24 1
    13    4   25 1
    14    5    6 1
    15    5   26 1
    16    5   27 1
    17    6    7 1
    18    6    8 am
    19    7   28 1
    20    7   29 1
    21    7   30 1
    22    8    9 2
    23    8   10 1
    24   10   11 1
    25   10   12 1
    26   10   16 1
    27   12   13 1
    28   12   31 1
    29   12   32 1
    30   13   14 2
    31   13   15 am
    32   15   33 1
    33   15   34 1
    34   16   35 1
    35   16   36 1
    36   16   37 1
@<TRIPOS>MOLECULE
ZINC44476569
   42    42     0     0     0
SMALL
USER_CHARGES

@<TRIPOS>ATOM
      1 C1         -0.0187    1.5258    0.0104 C.3       1 <0>        -0.1576
      2 C2          0.0021   -0.0041    0.0020 C.3       1 <0>        -0.1164
      3 C3         -1.4333   -0.5336    0.0129 C.3       1 <0>        -0.0840
      4 C4         -1.4129   -2.0405    0.0046 C.ar      1 <0>        -0.1044
      5 C5         -1.4092   -2.7242   -1.1974 C.ar      1 <0>        -0.0594
      6 C6         -1.3910   -4.1052   -1.2077 C.ar      1 <0>        -0.1975
      7 C7         -1.3758   -4.8066   -0.0106 C.ar      1 <0>         0.1421
      8 C8         -1.3790   -4.1185    1.1938 C.ar      1 <0>        -0.1757
      9 C9         -1.3921   -2.7369    1.1986 C.ar      1 <0>        -0.0770
     10 C10        -1.3626   -4.8771    2.4958 C.3       1 <0>         0.1211
     11 H1         -1.9405   -5.7951    2.3887 H         1 <0>         0.1170
     12 C11         0.0809   -5.2235    2.8661 C.3       1 <0>         0.0031
     13 N1          0.1080   -5.8565    4.1914 N.4       1 <0>        -0.6296
     14 N2         -1.9538   -4.0469    3.5537 N.3       1 <0>        -0.8557
     15 O1         -1.3583   -6.1655   -0.0181 O.3       1 <0>        -0.3216
     16 C12        -1.3565   -6.8073   -1.2949 C.3       1 <0>         0.0562
     17 C13        -1.3359   -8.3250   -1.1028 C.3       1 <0>        -0.1201
     18 C14        -1.3340   -9.0121   -2.4698 C.3       1 <0>        -0.1554
     19 H2          1.0039    1.9031    0.0027 H         1 <0>         0.0585
     20 H3         -0.5459    1.8868   -0.8726 H         1 <0>         0.0579
     21 H4         -0.5289    1.8773    0.9072 H         1 <0>         0.0559
     22 H5          0.5123   -0.3556   -0.8948 H         1 <0>         0.0633
     23 H6          0.5293   -0.3651    0.8851 H         1 <0>         0.0591
     24 H7         -1.9435   -0.1821    0.9097 H         1 <0>         0.0739
     25 H8         -1.9605   -0.1726   -0.8702 H         1 <0>         0.0772
     26 H9         -1.4211   -2.1778   -2.1290 H         1 <0>         0.1325
     27 H10        -1.3889   -4.6387   -2.1468 H         1 <0>         0.1349
     28 H11        -1.3905   -2.2006    2.1361 H         1 <0>         0.1278
     29 H12         0.4907   -5.9113    2.1264 H         1 <0>         0.1391
     30 H13         0.6794   -4.3127    2.8862 H         1 <0>         0.1308
     31 H14        -0.2713   -5.2199    4.8761 H         1 <0>         0.4401
     32 H15        -0.4460   -6.6996    4.1728 H         1 <0>         0.4349
     33 H16        -1.4356   -3.1893    3.6724 H         1 <0>         0.3500
     34 H17        -2.9267   -3.8582    3.3641 H         1 <0>         0.3729
     35 H18        -2.2531   -6.5229   -1.8457 H         1 <0>         0.0678
     36 H19        -0.4733   -6.4999   -1.8548 H         1 <0>         0.0671
     37 H20        -0.4393   -8.6094   -0.5519 H         1 <0>         0.0713
     38 H21        -2.2191   -8.6324   -0.5429 H         1 <0>         0.0741
     39 H22        -1.3193  -10.0934   -2.3329 H         1 <0>         0.0697
     40 H23        -2.2305   -8.7278   -3.0206 H         1 <0>         0.0611
     41 H24        -0.4508   -8.7048   -3.0297 H         1 <0>         0.0601
     42 H25         1.0600   -6.0850    4.4356 H         1 <0>         0.4346
@<TRIPOS>BOND
     1    1    2 1
     2    1   19 1
     3    1   20 1
     4    1   21 1
     5    2    3 1
     6    2   22 1
     7    2   23 1
     8    3    4 1
     9    3   24 1
    10    3   25 1
    11    4    9 ar
    12    4    5 ar
    13    5    6 ar
    14    5   26 1
    15    6    7 ar
    16    6   27 1
    17    7    8 ar
    18    7   15 1
    19    8    9 ar
    20    8   10 1
    21    9   28 1
    22   10   11 1
    23   10   12 1
    24   10   14 1
    25   12   13 1
    26   12   29 1
    27   12   30 1
    28   13   31 1
    29   13   32 1
    30   13   42 1
    31   14   33 1
    32   14   34 1
    33   15   16 1
    34   16   17 1
    35   16   35 1
    36   16   36 1
    37   17   18 1
    38   17   37 1
    39   17   38 1
    40   18   39 1
    41   18   40 1
    42   18   41 1
@<TRIPOS>MOLECULE
ZINC49194904
   37    37     0     0     0
SMALL
USER_CHARGES

@<TRIPOS>ATOM
      1 C1         -0.0187    1.5258    0.0104 C.3       1 <0>        -0.1600
      2 C2          0.0021   -0.0041    0.0020 C.3       1 <0>        -0.1060
      3 C3          0.7421   -0.5109    1.2415 C.3       1 <0>        -0.1540
      4 C4         -1.4333   -0.5336    0.0129 C.3       1 <0>         0.1487
      5 H1         -1.9435   -0.1821    0.9097 H         1 <0>         0.0966
      6 C5         -2.1733   -0.0268   -1.2266 C.3       1 <0>        -0.0224
      7 N1         -3.5115   -0.6305   -1.2790 N.4       1 <0>        -0.3845
      8 C6         -4.3048   -0.1628   -0.1345 C.3       1 <0>        -0.0509
      9 C7         -4.1769   -0.2388   -2.5287 C.3       1 <0>        -0.0490
     10 N2         -1.4134   -1.9985    0.0048 N.pl3     1 <0>        -0.7519
     11 C8         -1.2859   -2.7083    1.2160 C.2       1 <0>         0.0005
     12 C9         -1.1794   -2.1642    2.4530 C.2       1 <0>         0.0208
     13 N3         -1.0760   -3.1859    3.3458 N.pl3     1 <0>        -0.4714
     14 H2         -0.9870   -3.0962    4.3075 H         1 <0>         0.4490
     15 N4         -1.1208   -4.3899    2.6315 N.2       1 <0>        -0.3200
     16 C10        -1.2525   -4.1086    1.3569 C.2       1 <0>         0.3191
     17 N5         -1.3405   -5.0413    0.3147 N.pl3     1 <0>        -0.8486
     18 H3          1.0039    1.9031    0.0027 H         1 <0>         0.0703
     19 H4         -0.5459    1.8868   -0.8726 H         1 <0>         0.0543
     20 H5         -0.5289    1.8773    0.9072 H         1 <0>         0.0617
     21 H6          0.5123   -0.3556   -0.8948 H         1 <0>         0.0815
     22 H7          0.2319   -0.1594    2.1383 H         1 <0>         0.0560
     23 H8          0.7568   -1.6008    1.2356 H         1 <0>         0.0720
     24 H9          1.7647   -0.1336    1.2338 H         1 <0>         0.0612
     25 H10        -2.2658    1.0581   -1.1763 H         1 <0>         0.1448
     26 H11        -1.6150   -0.3027   -2.1212 H         1 <0>         0.1354
     27 H12        -5.2977   -0.6107   -0.1733 H         1 <0>         0.1243
     28 H13        -3.8111   -0.4534    0.7928 H         1 <0>         0.1234
     29 H14        -4.3941    0.9229   -0.1737 H         1 <0>         0.1232
     30 H15        -3.5882   -0.5858   -3.3780 H         1 <0>         0.1233
     31 H16        -5.1698   -0.6867   -2.5676 H         1 <0>         0.1251
     32 H17        -4.2662    0.8469   -2.5680 H         1 <0>         0.1233
     33 H18        -1.4881   -2.4799   -0.8339 H         1 <0>         0.3931
     34 H19        -1.1768   -1.1100    2.6876 H         1 <0>         0.1739
     35 H20        -1.4337   -4.7373   -0.6017 H         1 <0>         0.4026
     36 H21        -1.3082   -5.9910    0.5097 H         1 <0>         0.4098
     37 H22        -3.4288   -1.6354   -1.2427 H         1 <0>         0.4250
@<TRIPOS>BOND
     1    1    2 1
     2    1   18 1
     3    1   19 1
     4    1   20 1
     5    2    3 1
     6    2    4 1
     7    2   21 1
     8    3   22 1
     9    3   23 1
    10    3   24 1
    11    4    5 1
    12    4    6 1
    13    4   10 1
    14    6    7 1
    15    6   25 1
    16    6   26 1
    17    7    8 1
    18    7    9 1
    19    7   37 1
    20    8   27 1
    21    8   28 1
    22    8   29 1
    23    9   30 1
    24    9   31 1
    25    9   32 1
    26   10   11 1
    27   10   33 1
    28   11   16 1
    29   11   12 2
    30   12   13 1
    31   12   34 1
    32   13   14 1
    33   13   15 1
    34   15   16 2
    35   16   17 1
    36   17   35 1
    37   17   36 1
@<TRIPOS>MOLECULE
ZINC54928464
   35    35     0     0     0
SMALL
USER_CHARGES

@<TRIPOS>ATOM
      1 C1          0.8007   -0.3921   -1.1211 C.3       1 <0>        -0.1639
      2 C2          0.0201   -0.0100    0.1382 C.3       1 <0>        -0.1048
      3 C3          0.0166    1.5120    0.2938 C.3       1 <0>        -0.1556
      4 C4         -1.4196   -0.5138    0.0182 C.3       1 <0>        -0.1436
      5 C5         -1.4250   -2.0437    0.0033 C.3       1 <0>         0.0300
      6 H1         -0.7752   -2.4016   -0.7954 H         1 <0>         0.1465
      7 C6         -2.8502   -2.5464   -0.2351 C.3       1 <0>        -0.0975
      8 C7         -2.8373   -4.0471   -0.3723 C.ar      1 <0>        -0.1215
      9 C8         -2.6664   -4.6245   -1.6168 C.ar      1 <0>        -0.0956
     10 C9         -2.6538   -6.0006   -1.7479 C.ar      1 <0>        -0.1182
     11 C10        -2.8121   -6.8045   -0.6304 C.ar      1 <0>         0.0996
     12 C11        -2.9836   -6.2233    0.6223 C.ar      1 <0>         0.0942
     13 C12        -2.9905   -4.8434    0.7474 C.ar      1 <0>        -0.1557
     14 O1         -3.1393   -7.0081    1.7220 O.3       1 <0>        -0.4815
     15 O2         -2.8004   -8.1584   -0.7577 O.3       1 <0>        -0.4826
     16 N1         -0.9374   -2.5478    1.2941 N.4       1 <0>        -0.6390
     17 H2          1.8264   -0.0332   -1.0356 H         1 <0>         0.0700
     18 H3          0.8033   -1.4764   -1.2320 H         1 <0>         0.0525
     19 H4          0.3286    0.0612   -1.9927 H         1 <0>         0.0697
     20 H5          0.4923   -0.4633    1.0098 H         1 <0>         0.0629
     21 H6         -0.6122    1.7892    1.1400 H         1 <0>         0.0615
     22 H7          1.0342    1.8619    0.4673 H         1 <0>         0.0671
     23 H8         -0.3749    1.9693   -0.6149 H         1 <0>         0.0662
     24 H9         -2.0014   -0.1567    0.8680 H         1 <0>         0.0928
     25 H10        -1.8595   -0.1399   -0.9063 H         1 <0>         0.1160
     26 H11        -3.4808   -2.2641    0.6080 H         1 <0>         0.1009
     27 H12        -3.2444   -2.1015   -1.1487 H         1 <0>         0.1243
     28 H13        -2.5430   -3.9991   -2.4886 H         1 <0>         0.1386
     29 H14        -2.5209   -6.4491   -2.7213 H         1 <0>         0.1444
     30 H15        -3.1196   -4.3898    1.7190 H         1 <0>         0.1337
     31 H16        -2.3094   -7.2386    2.1615 H         1 <0>         0.3933
     32 H17        -1.9219   -8.5538   -0.6733 H         1 <0>         0.3972
     33 H18        -1.4910   -2.1536    2.0399 H         1 <0>         0.4328
     34 H19        -1.0148   -3.5536    1.3133 H         1 <0>         0.4310
     35 H20         0.0284   -2.2824    1.4157 H         1 <0>         0.4343
@<TRIPOS>BOND
     1    1    2 1
     2    1   17 1
     3    1   18 1
     4    1   19 1
     5    2    3 1
     6    2    4 1
     7    2   20 1
     8    3   21 1
     9    3   22 1
    10    3   23 1
    11    4    5 1
    12    4   24 1
    13    4   25 1
    14    5    6 1
    15    5    7 1
    16    5   16 1
    17    7    8 1
    18    7   26 1
    19    7   27 1
    20    8   13 ar
    21    8    9 ar
    22    9   10 ar
    23    9   28 1
    24   10   11 ar
    25   10   29 1
    26   11   12 ar
    27   11   15 1
    28   12   13 ar
    29   12   14 1
    30   13   30 1
    31   14   31 1
    32   15   32 1
    33   16   33 1
    34   16   34 1
    35   16   35 1
@<TRIPOS>MOLECULE
ZINC63025744
   32    32     0     0     0
SMALL
USER_CHARGES

@<TRIPOS>ATOM
      1 C1         -0.0187    1.5258    0.0104 C.3       1 <0>        -0.1758
      2 C2          0.0021   -0.0041    0.0020 C.3       1 <0>        -0.1484
      3 C3          0.7182   -0.4975   -1.2568 C.3       1 <0>         0.0339
      4 H1          1.7103   -0.0491   -1.3098 H         1 <0>         0.1458
      5 C4          0.8493   -2.0210   -1.2049 C.3       1 <0>        -0.1091
      6 C5          1.6611   -2.4957   -2.3824 C.ar      1 <0>        -0.0690
      7 C6          1.0326   -2.8162   -3.5712 C.ar      1 <0>        -0.1643
      8 C7          1.7773   -3.2516   -4.6513 C.ar      1 <0>        -0.0060
      9 C8          3.1507   -3.3662   -4.5428 C.ar      1 <0>        -0.6651
     10 C9          3.7793   -3.0448   -3.3544 C.ar      1 <0>        -0.0032
     11 C10         3.0350   -2.6053   -2.2756 C.ar      1 <0>        -0.1259
     12 S1          4.0998   -3.9223   -5.9192 S.o2      1 <0>         2.6963
     13 O1          5.3029   -4.4632   -5.3909 O.2       1 <0>        -0.9509
     14 O2          3.2203   -4.6788   -6.7399 O.2       1 <0>        -0.9523
     15 N1          4.5270   -2.5820   -6.7930 N.pl3     1 <0>        -1.2476
     16 N2         -0.0570   -0.1128   -2.4438 N.4       1 <0>        -0.6402
     17 H2          1.0039    1.9031    0.0027 H         1 <0>         0.0733
     18 H3         -0.5459    1.8868   -0.8726 H         1 <0>         0.0525
     19 H4         -0.5289    1.8773    0.9072 H         1 <0>         0.0858
     20 H5          0.5293   -0.3651    0.8851 H         1 <0>         0.1151
     21 H6         -1.0205   -0.3814    0.0098 H         1 <0>         0.0917
     22 H7          1.3468   -2.3116   -0.2797 H         1 <0>         0.1281
     23 H8         -0.1422   -2.4724   -1.2416 H         1 <0>         0.1059
     24 H9         -0.0403   -2.7267   -3.6560 H         1 <0>         0.1353
     25 H10         1.2862   -3.5027   -5.5798 H         1 <0>         0.1531
     26 H11         4.8522   -3.1346   -3.2695 H         1 <0>         0.1539
     27 H12         3.5265   -2.3506   -1.3482 H         1 <0>         0.1434
     28 H13         4.2455   -1.7015   -6.4991 H         1 <0>         0.4143
     29 H14         5.0588   -2.6775   -7.5986 H         1 <0>         0.4271
     30 H15        -0.1435    0.8919   -2.4780 H         1 <0>         0.4362
     31 H16         0.4152   -0.4382   -3.2739 H         1 <0>         0.4325
     32 H17        -0.9754   -0.5279   -2.3947 H         1 <0>         0.4335
@<TRIPOS>BOND
     1    1    2 1
     2    1   17 1
     3    1   18 1
     4    1   19 1
     5    2    3 1
     6    2   20 1
     7    2   21 1
     8    3    4 1
     9    3    5 1
    10    3   16 1
    11    5    6 1
    12    5   22 1
    13    5   23 1
    14    6   11 ar
    15    6    7 ar
    16    7    8 ar
    17    7   24 1
    18    8    9 ar
    19    8   25 1
    20    9   10 ar
    21    9   12 1
    22   10   11 ar
    23   10   26 1
    24   11   27 1
    25   12   13 2
    26   12   14 2
    27   12   15 1
    28   15   28 1
    29   15   29 1
    30   16   30 1
    31   16   31 1
    32   16   32 1
@<TRIPOS>MOLECULE
ZINC38011168
   36    37     0     0     0
SMALL
USER_CHARGES

@<TRIPOS>ATOM
      1 C1         -0.0184    1.5028    0.0103 C.3       1 <0>        -0.0947
      2 C2          0.0021   -0.0041    0.0020 C.2       1 <0>         0.0973
      3 C3          0.0080   -0.8179   -1.1355 C.2       1 <0>        -0.3240
      4 C4          0.0279   -2.1072   -0.7249 C.2       1 <0>         0.1198
      5 N1          0.0343   -2.1090    0.6245 N.pl3     1 <0>        -0.4546
      6 H1          0.0479   -2.8941    1.1941 H         1 <0>         0.4542
      7 N2          0.0231   -0.7768    1.0576 N.2       1 <0>        -0.2686
      8 C5         -0.0061   -0.3430   -2.5656 C.3       1 <0>         0.0837
      9 N3          1.3502    0.0592   -2.9614 N.4       1 <0>        -0.5090
     10 C6          1.3364    0.5222   -4.3555 C.3       1 <0>         0.0857
     11 H2          0.9100   -0.2534   -4.9917 H         1 <0>         0.1527
     12 C7          0.4901    1.7923   -4.4627 C.3       1 <0>        -0.1791
     13 C8          2.7455    0.8184   -4.8003 C.ar      1 <0>        -0.1772
     14 C9          3.7347    1.0372   -3.8604 C.ar      1 <0>        -0.0981
     15 C10         5.0273    1.3090   -4.2651 C.ar      1 <0>        -0.1384
     16 C11         5.3356    1.3629   -5.6173 C.ar      1 <0>         0.1550
     17 C12         4.3452    1.1438   -6.5620 C.ar      1 <0>        -0.1620
     18 C13         3.0498    0.8656   -6.1533 C.ar      1 <0>         0.1591
     19 O1          2.0779    0.6444   -7.0770 O.3       1 <0>        -0.4916
     20 O2          6.6073    1.6307   -6.0147 O.3       1 <0>        -0.4918
     21 H3          1.0042    1.8801    0.0026 H         1 <0>         0.0846
     22 H4         -0.5455    1.8639   -0.8728 H         1 <0>         0.0816
     23 H5         -0.5286    1.8543    0.9071 H         1 <0>         0.0916
     24 H6          0.0366   -2.9785   -1.3629 H         1 <0>         0.1909
     25 H7         -0.3493   -1.1499   -3.2131 H         1 <0>         0.1379
     26 H8         -0.6795    0.5090   -2.6589 H         1 <0>         0.1390
     27 H9          1.6679    0.8062   -2.3621 H         1 <0>         0.4224
     28 H10         0.9165    2.5678   -3.8265 H         1 <0>         0.0846
     29 H11         0.4799    2.1358   -5.4971 H         1 <0>         0.1025
     30 H12        -0.5290    1.5780   -4.1410 H         1 <0>         0.0892
     31 H13         3.4967    0.9960   -2.8078 H         1 <0>         0.1252
     32 H14         5.7986    1.4800   -3.5286 H         1 <0>         0.1451
     33 H15         4.5831    1.1853   -7.6146 H         1 <0>         0.1497
     34 H16         1.6111    1.4441   -7.3560 H         1 <0>         0.4030
     35 H17         7.1596    0.8443   -6.1222 H         1 <0>         0.4066
     36 H18         1.9735   -0.7295   -2.8751 H         1 <0>         0.4280
@<TRIPOS>BOND
     1    1    2 1
     2    1   21 1
     3    1   22 1
     4    1   23 1
     5    2    7 2
     6    2    3 1
     7    3    4 2
     8    3    8 1
     9    4    5 1
    10    4   24 1
    11    5    6 1
    12    5    7 1
    13    8    9 1
    14    8   25 1
    15    8   26 1
    16    9   10 1
    17    9   27 1
    18    9   36 1
    19   10   11 1
    20   10   12 1
    21   10   13 1
    22   12   28 1
    23   12   29 1
    24   12   30 1
    25   13   18 ar
    26   13   14 ar
    27   14   15 ar
    28   14   31 1
    29   15   16 ar
    30   15   32 1
    31   16   17 ar
    32   16   20 1
    33   17   18 ar
    34   17   33 1
    35   18   19 1
    36   19   34 1
    37   20   35 1
@<TRIPOS>MOLECULE
ZINC44465530
   41    42     0     0     0
SMALL
USER_CHARGES

@<TRIPOS>ATOM
      1 C1         -0.0167    1.3833    0.0096 C.ar      1 <0>        -0.1951
      2 C2          1.1699    2.0916    0.0021 C.ar      1 <0>        -0.0783
      3 C3          2.3775    1.4207   -0.0130 C.ar      1 <0>        -0.1987
      4 C4          2.4016    0.0330   -0.0206 C.ar      1 <0>         0.1648
      5 C5          1.2127   -0.6798   -0.0131 C.ar      1 <0>        -0.1710
      6 C6          0.0021   -0.0041    0.0020 C.ar      1 <0>         0.1705
      7 O1         -1.1651   -0.7001    0.0098 O.3       1 <0>        -0.2878
      8 C7         -2.3743    0.0612    0.0259 C.3       1 <0>         0.2554
      9 H1         -2.3222    0.8097    0.8166 H         1 <0>         0.0697
     10 C8         -3.5612   -0.8710    0.2827 C.3       1 <0>        -0.1426
     11 C9         -4.8583   -0.0575    0.2386 C.3       1 <0>        -0.1213
     12 C10        -4.9580    0.6509   -1.1159 C.3       1 <0>        -0.1642
     13 C11        -3.7172    1.5244   -1.3187 C.3       1 <0>         0.0708
     14 O2         -2.5449    0.7114   -1.2352 O.3       1 <0>        -0.4027
     15 O3          3.5897   -0.6265   -0.0359 O.3       1 <0>        -0.4940
     16 C12         3.6696    2.1962   -0.0216 C.3       1 <0>        -0.0833
     17 C13         4.1576    2.3580   -1.4627 C.3       1 <0>         0.0378
     18 H2          4.2361    1.3774   -1.9320 H         1 <0>         0.1524
     19 C14         5.5296    3.0351   -1.4635 C.3       1 <0>         0.0521
     20 O4          6.0372    3.0814   -2.7985 O.3       1 <0>        -0.5802
     21 N1          3.2030    3.1849   -2.2130 N.4       1 <0>        -0.6338
     22 H3         -0.9594    1.9100    0.0260 H         1 <0>         0.1394
     23 H4          1.1532    3.1715    0.0077 H         1 <0>         0.1320
     24 H5          1.2295   -1.7596   -0.0194 H         1 <0>         0.1470
     25 H6         -3.5899   -1.6442   -0.4851 H         1 <0>         0.0881
     26 H7         -3.4549   -1.3342    1.2636 H         1 <0>         0.0882
     27 H8         -5.7114   -0.7242    0.3650 H         1 <0>         0.0849
     28 H9         -4.8514    0.6835    1.0380 H         1 <0>         0.0695
     29 H10        -5.0149   -0.0915   -1.9119 H         1 <0>         0.0789
     30 H11        -5.8507    1.2761   -1.1351 H         1 <0>         0.0848
     31 H12        -3.7622    1.9977   -2.2995 H         1 <0>         0.1043
     32 H13        -3.6827    2.2921   -0.5456 H         1 <0>         0.0552
     33 H14         3.9424   -0.8220    0.8430 H         1 <0>         0.4041
     34 H15         3.5061    3.1796    0.4192 H         1 <0>         0.0984
     35 H16         4.4200    1.6584    0.5579 H         1 <0>         0.1201
     36 H17         5.4345    4.0494   -1.0756 H         1 <0>         0.0729
     37 H18         6.2150    2.4681   -0.8336 H         1 <0>         0.0962
     38 H19         6.9062    3.4987   -2.8746 H         1 <0>         0.4106
     39 H20         3.1303    4.0927   -1.7785 H         1 <0>         0.4288
     40 H21         3.5248    3.2917   -3.1633 H         1 <0>         0.4421
     41 H22         2.2982    2.7384   -2.2124 H         1 <0>         0.4338
@<TRIPOS>BOND
     1    1    6 ar
     2    1    2 ar
     3    1   22 1
     4    2    3 ar
     5    2   23 1
     6    3    4 ar
     7    3   16 1
     8    4    5 ar
     9    4   15 1
    10    5    6 ar
    11    5   24 1
    12    6    7 1
    13    7    8 1
    14    8    9 1
    15    8   14 1
    16    8   10 1
    17   10   11 1
    18   10   25 1
    19   10   26 1
    20   11   12 1
    21   11   27 1
    22   11   28 1
    23   12   13 1
    24   12   29 1
    25   12   30 1
    26   13   14 1
    27   13   31 1
    28   13   32 1
    29   15   33 1
    30   16   17 1
    31   16   34 1
    32   16   35 1
    33   17   18 1
    34   17   19 1
    35   17   21 1
    36   19   20 1
    37   19   36 1
    38   19   37 1
    39   20   38 1
    40   21   39 1
    41   21   40 1
    42   21   41 1
@<TRIPOS>MOLECULE
ZINC53097384
   42    43     0     0     0
SMALL
USER_CHARGES

@<TRIPOS>ATOM
      1 C1          1.1275    0.3218    4.1430 C.ar      1 <0>        -0.0649
      2 C2          2.2201    1.1248    3.8872 C.ar      1 <0>        -0.0639
      3 C3          2.2627    1.8959    2.7399 C.ar      1 <0>        -0.1732
      4 C4          1.2091    1.8680    1.8399 C.ar      1 <0>         0.1160
      5 C5          0.1094    1.0683    2.0853 C.ar      1 <0>        -0.1187
      6 C6          0.0627    0.2879    3.2414 C.ar      1 <0>        -0.0701
      7 C7         -1.1103   -0.5711    3.5103 C.2       1 <0>         0.5556
      8 O1         -1.1486   -1.2495    4.5181 O.2       1 <0>        -0.5165
      9 N1         -2.1371   -0.6019    2.6378 N.am      1 <0>        -0.8423
     10 F1          1.2572    2.6242    0.7214 F         1 <0>        -0.1241
     11 C8          3.4594    2.7704    2.4674 C.3       1 <0>         0.0370
     12 N2          4.2846    2.1579    1.4178 N.4       1 <0>        -0.5004
     13 C9          5.4974    2.9620    1.2167 C.3       1 <0>         0.0679
     14 C10         6.2995    2.3913    0.0455 C.3       1 <0>        -0.1337
     15 C11         6.6918    0.9447    0.3529 C.3       1 <0>        -0.1371
     16 C12         7.5453    0.9065    1.6222 C.3       1 <0>        -0.1334
     17 C13         6.7432    1.4773    2.7934 C.3       1 <0>        -0.1336
     18 C14         6.3509    2.9238    2.4860 C.3       1 <0>        -0.1391
     19 C15         5.1051    4.4086    0.9094 C.3       1 <0>         0.0564
     20 O2          4.2050    4.4325   -0.2003 O.3       1 <0>        -0.5769
     21 H1          1.0983   -0.2829    5.0373 H         1 <0>         0.1596
     22 H2          3.0440    1.1515    4.5849 H         1 <0>         0.1538
     23 H3         -0.7119    1.0472    1.3843 H         1 <0>         0.1535
     24 H4         -2.1065   -0.0605    1.8335 H         1 <0>         0.4025
     25 H5         -2.9066   -1.1654    2.8142 H         1 <0>         0.4160
     26 H6          3.1235    3.7536    2.1381 H         1 <0>         0.1448
     27 H7          4.0486    2.8741    3.3786 H         1 <0>         0.1466
     28 H8          4.5432    1.2231    1.6958 H         1 <0>         0.4234
     29 H9          5.6915    2.4185   -0.8588 H         1 <0>         0.0969
     30 H10         7.1994    2.9879   -0.1036 H         1 <0>         0.1119
     31 H11         5.7919    0.3481    0.5021 H         1 <0>         0.0561
     32 H12         7.2632    0.5381   -0.4815 H         1 <0>         0.0943
     33 H13         7.8248   -0.1240    1.8412 H         1 <0>         0.0822
     34 H14         8.4452    1.5032    1.4730 H         1 <0>         0.0811
     35 H15         5.8433    0.8806    2.9426 H         1 <0>         0.0578
     36 H16         7.3512    1.4500    3.6977 H         1 <0>         0.0967
     37 H17         7.2508    3.5205    2.3369 H         1 <0>         0.1160
     38 H18         5.7795    3.3305    3.3204 H         1 <0>         0.0911
     39 H19         4.6188    4.8463    1.7812 H         1 <0>         0.0735
     40 H20         5.9985    4.9833    0.6649 H         1 <0>         0.0945
     41 H21         3.9137    5.3197   -0.4514 H         1 <0>         0.4100
     42 H22         3.7599    2.1197    0.5568 H         1 <0>         0.4327
@<TRIPOS>BOND
     1    1    6 ar
     2    1    2 ar
     3    1   21 1
     4    2    3 ar
     5    2   22 1
     6    3    4 ar
     7    3   11 1
     8    4    5 ar
     9    4   10 1
    10    5    6 ar
    11    5   23 1
    12    6    7 1
    13    7    8 2
    14    7    9 am
    15    9   24 1
    16    9   25 1
    17   11   12 1
    18   11   26 1
    19   11   27 1
    20   12   13 1
    21   12   28 1
    22   12   42 1
    23   13   18 1
    24   13   14 1
    25   13   19 1
    26   14   15 1
    27   14   29 1
    28   14   30 1
    29   15   16 1
    30   15   31 1
    31   15   32 1
    32   16   17 1
    33   16   33 1
    34   16   34 1
    35   17   18 1
    36   17   35 1
    37   17   36 1
    38   18   37 1
    39   18   38 1
    40   19   20 1
    41   19   39 1
    42   19   40 1
    43   20   41 1
@<TRIPOS>MOLECULE
ZINC57837995
   36    37     0     0     0
SMALL
USER_CHARGES

@<TRIPOS>ATOM
      1 C1         -0.0167    1.3782    0.0096 C.ar      1 <0>        -0.0832
      2 C2          1.1664    2.0887    0.0021 C.ar      1 <0>        -0.1181
      3 C3          2.3864    1.4111   -0.0131 C.ar      1 <0>        -0.0970
      4 C4          2.4038    0.0160   -0.0207 C.ar      1 <0>        -0.0890
      5 C5          1.2110   -0.6869   -0.0131 C.ar      1 <0>         0.1176
      6 C6          0.0021   -0.0041    0.0020 C.ar      1 <0>        -0.1818
      7 O1          1.2234   -2.0460   -0.0209 O.3       1 <0>        -0.3075
      8 C7         -0.0438   -2.7064   -0.0123 C.3       1 <0>         0.0887
      9 C8          0.1673   -4.1985   -0.0229 C.ar      1 <0>        -0.0538
     10 C9          0.2581   -4.8752   -1.2248 C.ar      1 <0>        -0.0910
     11 C10         0.4517   -6.2439   -1.2344 C.ar      1 <0>        -0.0935
     12 C11         0.5549   -6.9358   -0.0421 C.ar      1 <0>        -0.1638
     13 C12         0.4650   -6.2589    1.1598 C.ar      1 <0>        -0.0934
     14 C13         0.2757   -4.8896    1.1694 C.ar      1 <0>        -0.0911
     15 C14         0.7650   -8.4280   -0.0527 C.3       1 <0>         0.0474
     16 N1          2.2047   -8.7198   -0.0628 N.4       1 <0>        -0.6371
     17 C15         3.6560    2.1690   -0.0216 C.2       1 <0>         0.5630
     18 O2          4.7173    1.5766   -0.0349 O.2       1 <0>        -0.5347
     19 N2          3.6364    3.5166   -0.0147 N.am      1 <0>        -0.8464
     20 H1         -0.9601    1.9037    0.0260 H         1 <0>         0.1372
     21 H2          1.1482    3.1686    0.0077 H         1 <0>         0.1327
     22 H3          3.3448   -0.5140   -0.0329 H         1 <0>         0.1451
     23 H4         -0.9269   -0.5548    0.0079 H         1 <0>         0.1334
     24 H5         -0.5948   -2.4237    0.8847 H         1 <0>         0.0807
     25 H6         -0.6121   -2.4136   -0.8952 H         1 <0>         0.0808
     26 H7          0.1774   -4.3347   -2.1563 H         1 <0>         0.1391
     27 H8          0.5219   -6.7727   -2.1735 H         1 <0>         0.1363
     28 H9          0.5454   -6.7995    2.0913 H         1 <0>         0.1363
     29 H10         0.2092   -4.3602    2.1084 H         1 <0>         0.1391
     30 H11         0.3120   -8.8650    0.8372 H         1 <0>         0.1410
     31 H12         0.3017   -8.8539   -0.9427 H         1 <0>         0.1410
     32 H13         2.6241   -8.3153   -0.8865 H         1 <0>         0.4353
     33 H14         2.6336   -8.3256    0.7611 H         1 <0>         0.4353
     34 H15         2.7895    3.9893   -0.0041 H         1 <0>         0.4029
     35 H16         4.4693    4.0137   -0.0203 H         1 <0>         0.4099
     36 H17         2.3454   -9.7189   -0.0698 H         1 <0>         0.4385
@<TRIPOS>BOND
     1    1    6 ar
     2    1    2 ar
     3    1   20 1
     4    2    3 ar
     5    2   21 1
     6    3    4 ar
     7    3   17 1
     8    4    5 ar
     9    4   22 1
    10    5    6 ar
    11    5    7 1
    12    6   23 1
    13    7    8 1
    14    8    9 1
    15    8   24 1
    16    8   25 1
    17    9   14 ar
    18    9   10 ar
    19   10   11 ar
    20   10   26 1
    21   11   12 ar
    22   11   27 1
    23   12   13 ar
    24   12   15 1
    25   13   14 ar
    26   13   28 1
    27   14   29 1
    28   15   16 1
    29   15   30 1
    30   15   31 1
    31   16   32 1
    32   16   33 1
    33   16   36 1
    34   17   18 2
    35   17   19 am
    36   19   34 1
    37   19   35 1
@<TRIPOS>MOLECULE
ZINC63072743
   43    44     0     0     0
SMALL
USER_CHARGES

@<TRIPOS>ATOM
      1 C1          0.4523    1.1469   -0.9542 C.3       1 <0>        -0.1752
      2 C2          0.4489   -0.3618   -0.6997 C.3       1 <0>         0.0511
      3 C3         -0.9916   -0.9070   -0.7948 C.3       1 <0>        -0.1310
      4 C4         -1.4457   -0.9551    0.6878 C.3       1 <0>        -0.1404
      5 C5         -0.1315   -1.3527    1.4049 C.3       1 <0>        -0.0262
      6 N1          0.9325   -0.6413    0.6649 N.4       1 <0>        -0.3859
      7 C6          2.1361   -1.4811    0.6004 C.3       1 <0>        -0.0368
      8 C7          2.7474   -1.6043    1.9976 C.3       1 <0>         0.1375
      9 C8          2.9982   -0.2286    2.5593 C.ar      1 <0>        -0.1327
     10 C9          3.2777    0.8248    1.7089 C.ar      1 <0>        -0.1375
     11 C10         3.5078    2.0867    2.2242 C.ar      1 <0>        -0.1052
     12 C11         3.4580    2.2953    3.5898 C.ar      1 <0>        -0.0940
     13 C12         3.1776    1.2421    4.4401 C.ar      1 <0>        -0.1060
     14 C13         2.9432   -0.0189    3.9246 C.ar      1 <0>        -0.0855
     15 C14         4.0501   -2.3569    1.9114 C.2       1 <0>         0.5420
     16 O1          4.6925   -2.3413    0.8828 O.2       1 <0>        -0.5329
     17 N2          4.5014   -3.0473    2.9773 N.am      1 <0>        -0.8248
     18 N3          1.8198   -2.3301    2.8756 N.3       1 <0>        -0.8366
     19 C15         1.3436   -1.0641   -1.7230 C.3       1 <0>        -0.1769
     20 H1          1.4666    1.5313   -0.8464 H         1 <0>         0.0812
     21 H2          0.0939    1.3457   -1.9642 H         1 <0>         0.1097
     22 H3         -0.2010    1.6385   -0.2334 H         1 <0>         0.0823
     23 H4         -1.6230   -0.2293   -1.3695 H         1 <0>         0.1160
     24 H5         -0.9977   -1.9053   -1.2323 H         1 <0>         0.1024
     25 H6         -1.7924    0.0228    1.0219 H         1 <0>         0.1006
     26 H7         -2.2158   -1.7121    0.8360 H         1 <0>         0.1206
     27 H8         -0.1531   -1.0271    2.4449 H         1 <0>         0.1356
     28 H9          0.0214   -2.4303    1.3469 H         1 <0>         0.1321
     29 H10         1.8688   -2.4715    0.2321 H         1 <0>         0.1418
     30 H11         2.8610   -1.0259   -0.0744 H         1 <0>         0.1559
     31 H12         3.3167    0.6618    0.6420 H         1 <0>         0.1233
     32 H13         3.7269    2.9095    1.5599 H         1 <0>         0.1362
     33 H14         3.6384    3.2811    3.9924 H         1 <0>         0.1363
     34 H15         3.1389    1.4051    5.5071 H         1 <0>         0.1375
     35 H16         2.7205   -0.8410    4.5887 H         1 <0>         0.1431
     36 H17         3.9876   -3.0598    3.8000 H         1 <0>         0.4140
     37 H18         5.3399   -3.5317    2.9218 H         1 <0>         0.4126
     38 H19         1.0437   -1.7442    3.1450 H         1 <0>         0.3562
     39 H20         1.4966   -3.1794    2.4371 H         1 <0>         0.3627
     40 H21         2.3649   -0.6958   -1.6262 H         1 <0>         0.0851
     41 H22         1.3265   -2.1391   -1.5434 H         1 <0>         0.0829
     42 H23         0.9767   -0.8579   -2.7285 H         1 <0>         0.1061
     43 H24         1.1497    0.2260    1.1325 H         1 <0>         0.4226
@<TRIPOS>BOND
     1    1    2 1
     2    1   20 1
     3    1   21 1
     4    1   22 1
     5    2    6 1
     6    2    3 1
     7    2   19 1
     8    3    4 1
     9    3   23 1
    10    3   24 1
    11    4    5 1
    12    4   25 1
    13    4   26 1
    14    5    6 1
    15    5   27 1
    16    5   28 1
    17    6    7 1
    18    6   43 1
    19    7    8 1
    20    7   29 1
    21    7   30 1
    22    8    9 1
    23    8   15 1
    24    8   18 1
    25    9   14 ar
    26    9   10 ar
    27   10   11 ar
    28   10   31 1
    29   11   12 ar
    30   11   32 1
    31   12   13 ar
    32   12   33 1
    33   13   14 ar
    34   13   34 1
    35   14   35 1
    36   15   16 2
    37   15   17 am
    38   17   36 1
    39   17   37 1
    40   18   38 1
    41   18   39 1
    42   19   40 1
    43   19   41 1
    44   19   42 1
@<TRIPOS>MOLECULE
ZINC37636338
   40    40     0     0     0
SMALL
USER_CHARGES

@<TRIPOS>ATOM
      1 C1         -0.0187    1.5258    0.0104 C.3       1 <0>        -0.1526
      2 C2          0.0021   -0.0041    0.0020 C.3       1 <0>        -0.0892
      3 C3          0.7421   -0.5109    1.2415 C.3       1 <0>        -0.1526
      4 C4         -1.4333   -0.5336    0.0129 C.3       1 <0>        -0.0916
      5 C5         -1.4159   -2.0348   -0.1192 C.ar      1 <0>        -0.0408
      6 C6         -1.4497   -2.6188   -1.3716 C.ar      1 <0>        -0.1069
      7 C7         -1.4338   -3.9958   -1.4928 C.ar      1 <0>        -0.0812
      8 C8         -1.3836   -4.7886   -0.3615 C.ar      1 <0>        -0.1559
      9 C9         -1.3488   -4.2045    0.8909 C.ar      1 <0>        -0.1169
     10 C10        -1.3605   -2.8275    1.0119 C.ar      1 <0>        -0.1032
     11 C11        -1.3672   -6.2897   -0.4935 C.3       1 <0>         0.0879
     12 H1         -1.0465   -6.5626   -1.4989 H         1 <0>         0.1504
     13 C12        -2.7723   -6.8394   -0.2397 C.3       1 <0>        -0.1285
     14 C13        -2.7838   -8.3478   -0.4954 C.3       1 <0>        -0.1604
     15 C14        -4.1677   -8.8892   -0.2454 C.2       1 <0>         0.5141
     16 O1         -5.0574   -8.1422    0.1030 O.2       1 <0>        -0.5321
     17 N1         -4.4169  -10.2036   -0.4090 N.am      1 <0>        -0.8510
     18 N2         -0.4344   -6.8576    0.4890 N.4       1 <0>        -0.6382
     19 H2          1.0039    1.9031    0.0027 H         1 <0>         0.0604
     20 H3         -0.5459    1.8868   -0.8726 H         1 <0>         0.0583
     21 H4         -0.5289    1.8773    0.9072 H         1 <0>         0.0584
     22 H5          0.5123   -0.3556   -0.8948 H         1 <0>         0.0714
     23 H6          0.7568   -1.6008    1.2356 H         1 <0>         0.0518
     24 H7          1.7647   -0.1336    1.2338 H         1 <0>         0.0588
     25 H8          0.2319   -0.1594    2.1383 H         1 <0>         0.0575
     26 H9         -1.9156   -0.2570    0.9504 H         1 <0>         0.0811
     27 H10        -1.9862   -0.1019   -0.8214 H         1 <0>         0.0817
     28 H11        -1.4890   -1.9994   -2.2555 H         1 <0>         0.1360
     29 H12        -1.4609   -4.4521   -2.4712 H         1 <0>         0.1340
     30 H13        -1.3099   -4.8240    1.7747 H         1 <0>         0.1197
     31 H14        -1.3296   -2.3711    1.9902 H         1 <0>         0.1347
     32 H15        -3.0577   -6.6439    0.7939 H         1 <0>         0.0995
     33 H16        -3.4798   -6.3518   -0.9104 H         1 <0>         0.1230
     34 H17        -2.4984   -8.5433   -1.5291 H         1 <0>         0.1123
     35 H18        -2.0762   -8.8354    0.1752 H         1 <0>         0.0895
     36 H19        -3.7054  -10.8011   -0.6877 H         1 <0>         0.4043
     37 H20        -5.3077  -10.5521   -0.2481 H         1 <0>         0.4113
     38 H21        -0.4234   -7.8626    0.4006 H         1 <0>         0.4332
     39 H22         0.4923   -6.4951    0.3216 H         1 <0>         0.4395
     40 H23        -0.7313   -6.6050    1.4197 H         1 <0>         0.4322
@<TRIPOS>BOND
     1    1    2 1
     2    1   19 1
     3    1   20 1
     4    1   21 1
     5    2    3 1
     6    2    4 1
     7    2   22 1
     8    3   23 1
     9    3   24 1
    10    3   25 1
    11    4    5 1
    12    4   26 1
    13    4   27 1
    14    5   10 ar
    15    5    6 ar
    16    6    7 ar
    17    6   28 1
    18    7    8 ar
    19    7   29 1
    20    8    9 ar
    21    8   11 1
    22    9   10 ar
    23    9   30 1
    24   10   31 1
    25   11   12 1
    26   11   13 1
    27   11   18 1
    28   13   14 1
    29   13   32 1
    30   13   33 1
    31   14   15 1
    32   14   34 1
    33   14   35 1
    34   15   16 2
    35   15   17 am
    36   17   36 1
    37   17   37 1
    38   18   38 1
    39   18   39 1
    40   18   40 1
@<TRIPOS>MOLECULE
ZINC43123810
   39    39     0     0     0
SMALL
USER_CHARGES

@<TRIPOS>ATOM
      1 C1         -1.2327    1.0519    0.7185 C.3       1 <0>        -0.1733
      2 C2         -0.6806   -0.3714    0.6166 C.3       1 <0>         0.0345
      3 H1         -1.3970   -1.0707    1.0478 H         1 <0>         0.1371
      4 C3          0.6423   -0.4612    1.3799 C.3       1 <0>         0.1172
      5 H2          1.3468    0.2640    0.9725 H         1 <0>         0.1216
      6 C4          1.2115   -1.8492    1.2372 C.2       1 <0>        -0.1909
      7 C5          2.4394   -2.0452    0.6335 C.2       1 <0>        -0.1654
      8 C6          2.9227   -3.3066    0.5210 C.2       1 <0>        -0.1532
      9 S1          1.6255   -4.2684    1.2822 S.3       1 <0>         0.0939
     10 C7          0.5295   -2.9237    1.7038 C.2       1 <0>        -0.1991
     11 N1          0.4084   -0.1716    2.8010 N.3       1 <0>        -0.4838
     12 C8         -0.2900   -1.2850    3.4571 C.3       1 <0>         0.0095
     13 C9         -0.8272   -0.8264    4.7883 C.2       1 <0>         0.5119
     14 O1         -0.7250    0.3371    5.1152 O.2       1 <0>        -0.5146
     15 N2         -1.4214   -1.7091    5.6155 N.am      1 <0>        -0.8550
     16 C10         1.6685    0.1383    3.4895 C.3       1 <0>         0.0766
     17 C11         2.6513   -1.0188    3.2998 C.3       1 <0>        -0.1973
     18 C12         2.2683    1.4181    2.9036 C.3       1 <0>        -0.1438
     19 N3         -0.4553   -0.7094   -0.7951 N.4       1 <0>        -0.6333
     20 H3         -0.4804    1.7592    0.3694 H         1 <0>         0.0821
     21 H4         -2.1274    1.1395    0.1022 H         1 <0>         0.0788
     22 H5         -1.4834    1.2709    1.7564 H         1 <0>         0.1191
     23 H6          3.0051   -1.2059    0.2568 H         1 <0>         0.1410
     24 H7          3.8514   -3.6427    0.0839 H         1 <0>         0.1932
     25 H8         -0.4288   -2.9576    2.2008 H         1 <0>         0.1959
     26 H9         -1.1151   -1.6179    2.8274 H         1 <0>         0.1031
     27 H10         0.4056   -2.1101    3.6108 H         1 <0>         0.0906
     28 H11        -1.5032   -2.6396    5.3540 H         1 <0>         0.4010
     29 H12        -1.7672   -1.4139    6.4723 H         1 <0>         0.4101
     30 H13         1.4760    0.2810    4.5528 H         1 <0>         0.1033
     31 H14         3.0497   -0.9946    2.2856 H         1 <0>         0.0725
     32 H15         3.4691   -0.9217    4.0139 H         1 <0>         0.0653
     33 H16         2.1352   -1.9646    3.4650 H         1 <0>         0.0567
     34 H17         1.5973    2.2552    3.0962 H         1 <0>         0.0709
     35 H18         3.2346    1.6126    3.3690 H         1 <0>         0.0689
     36 H19         2.4005    1.2983    1.8283 H         1 <0>         0.0498
     37 H20         0.2078   -0.0621   -1.1942 H         1 <0>         0.4334
     38 H21        -0.0913   -1.6480   -0.8623 H         1 <0>         0.4328
     39 H22        -1.3278   -0.6502   -1.2985 H         1 <0>         0.4385
@<TRIPOS>BOND
     1    1    2 1
     2    1   20 1
     3    1   21 1
     4    1   22 1
     5    2    3 1
     6    2    4 1
     7    2   19 1
     8    4    5 1
     9    4    6 1
    10    4   11 1
    11    6   10 2
    12    6    7 1
    13    7    8 2
    14    7   23 1
    15    8    9 1
    16    8   24 1
    17    9   10 1
    18   10   25 1
    19   11   12 1
    20   11   16 1
    21   12   13 1
    22   12   26 1
    23   12   27 1
    24   13   14 2
    25   13   15 am
    26   15   28 1
    27   15   29 1
    28   16   17 1
    29   16   18 1
    30   16   30 1
    31   17   31 1
    32   17   32 1
    33   17   33 1
    34   18   34 1
    35   18   35 1
    36   18   36 1
    37   19   37 1
    38   19   38 1
    39   19   39 1
@<TRIPOS>MOLECULE
ZINC44475274
   42    42     0     0     0
SMALL
USER_CHARGES

@<TRIPOS>ATOM
      1 C1         -0.0187    1.5258    0.0104 C.3       1 <0>        -0.1518
      2 C2          0.0021   -0.0041    0.0020 C.3       1 <0>        -0.1229
      3 C3         -1.4333   -0.5336    0.0129 C.3       1 <0>         0.0672
      4 O1         -1.4139   -1.9625    0.0050 O.3       1 <0>        -0.3247
      5 C4         -2.6165   -2.5960    0.0131 C.ar      1 <0>         0.1296
      6 C5         -3.2224   -2.9211    1.2177 C.ar      1 <0>        -0.0713
      7 C6         -4.4449   -3.5646    1.2235 C.ar      1 <0>        -0.0810
      8 C7         -5.0649   -3.8852    0.0298 C.ar      1 <0>        -0.1411
      9 C8         -4.4636   -3.5631   -1.1727 C.ar      1 <0>        -0.1006
     10 C9         -3.2431   -2.9136   -1.1841 C.ar      1 <0>        -0.0514
     11 Cl1        -2.4916   -2.5027   -2.6941 Cl        1 <0>        -0.0374
     12 C10        -6.3982   -4.5876    0.0397 C.3       1 <0>         0.1131
     13 H1         -6.8759   -4.4468    1.0092 H         1 <0>         0.1182
     14 C11        -6.1893   -6.0819   -0.2137 C.3       1 <0>        -0.0003
     15 N1         -7.4945   -6.7472   -0.3232 N.4       1 <0>        -0.6300
     16 N2         -7.2546   -4.0273   -1.0142 N.3       1 <0>        -0.8540
     17 C12        -2.5474   -2.5731    2.5194 C.3       1 <0>        -0.0632
     18 C13        -3.4510   -1.6412    3.3293 C.3       1 <0>        -0.1462
     19 C14        -2.2881   -3.8525    3.3174 C.3       1 <0>        -0.1425
     20 H2          1.0039    1.9031    0.0027 H         1 <0>         0.0688
     21 H3         -0.5459    1.8868   -0.8726 H         1 <0>         0.0579
     22 H4         -0.5289    1.8773    0.9072 H         1 <0>         0.0579
     23 H5          0.5123   -0.3556   -0.8948 H         1 <0>         0.0755
     24 H6          0.5293   -0.3651    0.8851 H         1 <0>         0.0749
     25 H7         -1.9435   -0.1821    0.9097 H         1 <0>         0.0577
     26 H8         -1.9605   -0.1726   -0.8702 H         1 <0>         0.0576
     27 H9         -4.9168   -3.8178    2.1614 H         1 <0>         0.1374
     28 H10        -4.9495   -3.8152   -2.1036 H         1 <0>         0.1349
     29 H11        -5.6328   -6.2190   -1.1408 H         1 <0>         0.1335
     30 H12        -5.6286   -6.5159    0.6142 H         1 <0>         0.1417
     31 H13        -7.3567   -7.7326   -0.4903 H         1 <0>         0.4367
     32 H14        -8.0097   -6.6203    0.5350 H         1 <0>         0.4352
     33 H15        -7.4604   -3.0560   -0.8345 H         1 <0>         0.3744
     34 H16        -6.8334   -4.1455   -1.9234 H         1 <0>         0.3521
     35 H17        -1.6002   -2.0739    2.3153 H         1 <0>         0.0920
     36 H18        -4.3982   -2.1405    3.5333 H         1 <0>         0.0566
     37 H19        -2.9628   -1.3895    4.2707 H         1 <0>         0.0682
     38 H20        -3.6357   -0.7298    2.7608 H         1 <0>         0.0555
     39 H21        -1.6443   -4.5165    2.7404 H         1 <0>         0.0587
     40 H22        -1.7998   -3.6008    4.2589 H         1 <0>         0.0673
     41 H23        -3.2353   -4.3518    3.5214 H         1 <0>         0.0544
     42 H24        -8.0135   -6.3454   -1.0896 H         1 <0>         0.4414
@<TRIPOS>BOND
     1    1    2 1
     2    1   20 1
     3    1   21 1
     4    1   22 1
     5    2    3 1
     6    2   23 1
     7    2   24 1
     8    3    4 1
     9    3   25 1
    10    3   26 1
    11    4    5 1
    12    5   10 ar
    13    5    6 ar
    14    6    7 ar
    15    6   17 1
    16    7    8 ar
    17    7   27 1
    18    8    9 ar
    19    8   12 1
    20    9   10 ar
    21    9   28 1
    22   10   11 1
    23   12   13 1
    24   12   14 1
    25   12   16 1
    26   14   15 1
    27   14   29 1
    28   14   30 1
    29   15   31 1
    30   15   32 1
    31   15   42 1
    32   16   33 1
    33   16   34 1
    34   17   18 1
    35   17   19 1
    36   17   35 1
    37   18   36 1
    38   18   37 1
    39   18   38 1
    40   19   39 1
    41   19   40 1
    42   19   41 1
@<TRIPOS>MOLECULE
ZINC52760550
   39    39     0     0     0
SMALL
USER_CHARGES

@<TRIPOS>ATOM
      1 C1          1.6848    0.9612   -1.6734 C.3       1 <0>        -0.1653
      2 C2          0.8451    0.4410   -0.5050 C.3       1 <0>        -0.1106
      3 C3          0.3575   -0.9750   -0.8180 C.3       1 <0>         0.0499
      4 H1          1.2151   -1.6396   -0.9230 H         1 <0>         0.1323
      5 C4         -0.5218   -1.4631    0.3043 C.cat     1 <0>         0.5431
      6 N1         -0.0301   -2.2757    1.2236 N.pl3     1 <0>        -0.7544
      7 N2         -1.7847   -1.0787    0.3694 N.pl3     1 <0>        -0.7498
      8 N3         -0.4092   -0.9632   -2.0710 N.3       1 <0>        -0.5073
      9 C5         -1.5466   -1.9054   -2.0052 C.3       1 <0>         0.0152
     10 C6         -1.6970   -2.4454   -3.4492 C.3       1 <0>        -0.1295
     11 C7         -0.2164   -2.5507   -3.9003 C.3       1 <0>        -0.1423
     12 C8          0.4429   -1.3351   -3.2154 C.3       1 <0>         0.0748
     13 H2          0.5056   -0.5032   -3.9168 H         1 <0>         0.1114
     14 C9          1.8417   -1.7108   -2.7223 C.3       1 <0>        -0.1693
     15 C10         2.7298   -2.0534   -3.9202 C.3       1 <0>        -0.1203
     16 C11         4.0918   -2.5412   -3.4224 C.3       1 <0>         0.0753
     17 O1          4.9212   -2.8612   -4.5412 O.3       1 <0>        -0.5727
     18 H3          2.6285    0.4172   -1.7132 H         1 <0>         0.0688
     19 H4          1.1405    0.8133   -2.6062 H         1 <0>         0.0803
     20 H5          1.8835    2.0237   -1.5333 H         1 <0>         0.0727
     21 H6          1.4525    0.4244    0.3999 H         1 <0>         0.0815
     22 H7         -0.0132    1.0958   -0.3545 H         1 <0>         0.0836
     23 H8          0.8967   -2.5578    1.1758 H         1 <0>         0.4472
     24 H9         -2.1233   -0.4177   -0.2546 H         1 <0>         0.4537
     25 H10        -2.3730   -1.4575    1.0412 H         1 <0>         0.4292
     26 H11        -1.3247   -2.7205   -1.3164 H         1 <0>         0.0448
     27 H12        -2.4536   -1.3845   -1.6984 H         1 <0>         0.0924
     28 H13        -2.1766   -3.4243   -3.4520 H         1 <0>         0.0844
     29 H14        -2.2465   -1.7414   -4.0741 H         1 <0>         0.0886
     30 H15         0.2290   -3.4806   -3.5468 H         1 <0>         0.0741
     31 H16        -0.1373   -2.4720   -4.9845 H         1 <0>         0.0901
     32 H17         2.2733   -0.8703   -2.1787 H         1 <0>         0.1041
     33 H18         1.7741   -2.5748   -2.0613 H         1 <0>         0.0638
     34 H19         2.2565   -2.8378   -4.5108 H         1 <0>         0.0757
     35 H20         2.8654   -1.1654   -4.5377 H         1 <0>         0.0789
     36 H21         4.5650   -1.7568   -2.8318 H         1 <0>         0.0453
     37 H22         3.9562   -3.4291   -2.8049 H         1 <0>         0.0416
     38 H23         5.8023   -3.1781   -4.2998 H         1 <0>         0.3866
     39 H24        -0.5961   -2.5898    1.9460 H         1 <0>         0.4320
@<TRIPOS>BOND
     1    1    2 1
     2    1   18 1
     3    1   19 1
     4    1   20 1
     5    2    3 1
     6    2   21 1
     7    2   22 1
     8    3    4 1
     9    3    5 1
    10    3    8 1
    11    5    6 2
    12    5    7 1
    13    6   23 1
    14    6   39 1
    15    7   24 1
    16    7   25 1
    17    8   12 1
    18    8    9 1
    19    9   10 1
    20    9   26 1
    21    9   27 1
    22   10   11 1
    23   10   28 1
    24   10   29 1
    25   11   12 1
    26   11   30 1
    27   11   31 1
    28   12   13 1
    29   12   14 1
    30   14   15 1
    31   14   32 1
    32   14   33 1
    33   15   16 1
    34   15   34 1
    35   15   35 1
    36   16   17 1
    37   16   36 1
    38   16   37 1
    39   17   38 1
@<TRIPOS>MOLECULE
ZINC62837321
   38    38     0     0     0
SMALL
USER_CHARGES

@<TRIPOS>ATOM
      1 C1         -0.0187    1.5258    0.0104 C.3       1 <0>        -0.1793
      2 C2          0.0021   -0.0041    0.0020 C.3       1 <0>         0.0532
      3 C3          0.7421   -0.5109    1.2415 C.3       1 <0>        -0.1125
      4 C4         -0.0416   -0.1236    2.4973 C.3       1 <0>        -0.1274
      5 S1          0.8358   -0.7245    3.9669 S.3       1 <0>        -0.2126
      6 C5         -0.2092   -0.1912    5.3504 C.3       1 <0>        -0.0799
      7 C6          0.4233   -0.6395    6.6695 C.3       1 <0>        -0.0802
      8 C7          1.7097    0.1735    6.9578 C.3       1 <0>        -0.1186
      9 C8          1.8506    0.0563    8.4958 C.3       1 <0>        -0.1282
     10 C9          0.4003    0.1343    9.0157 C.3       1 <0>        -0.1271
     11 C10        -0.5072   -0.3081    7.8545 C.3       1 <0>        -0.1147
     12 C11         0.7074   -0.4901   -1.2379 C.2       1 <0>         0.5091
     13 O1          1.8885   -0.7628   -1.1961 O.2       1 <0>        -0.4685
     14 N1          0.0259   -0.6217   -2.3931 N.am      1 <0>        -0.8477
     15 N2         -1.3761   -0.5125    0.0124 N.4       1 <0>        -0.6349
     16 H1          1.0039    1.9031    0.0027 H         1 <0>         0.1196
     17 H2         -0.5459    1.8868   -0.8726 H         1 <0>         0.0917
     18 H3         -0.5289    1.8773    0.9072 H         1 <0>         0.1006
     19 H4          0.8346   -1.5958    1.1912 H         1 <0>         0.1076
     20 H5          1.7350   -0.0630    1.2804 H         1 <0>         0.1346
     21 H6         -0.1341    0.9613    2.5476 H         1 <0>         0.1005
     22 H7         -1.0345   -0.5716    2.4584 H         1 <0>         0.0734
     23 H8         -0.2982    0.8951    5.3409 H         1 <0>         0.0863
     24 H9         -1.1986   -0.6377    5.2516 H         1 <0>         0.0834
     25 H10         0.6421   -1.7070    6.6432 H         1 <0>         0.0859
     26 H11         2.5687   -0.2719    6.4561 H         1 <0>         0.0713
     27 H12         1.5838    1.2144    6.6597 H         1 <0>         0.0693
     28 H13         2.3019   -0.8985    8.7659 H         1 <0>         0.0680
     29 H14         2.4418    0.8834    8.8889 H         1 <0>         0.0694
     30 H15         0.2719   -0.5355    9.8660 H         1 <0>         0.0675
     31 H16         0.1625    1.1575    9.3066 H         1 <0>         0.0662
     32 H17        -1.1856    0.5004    7.5818 H         1 <0>         0.0652
     33 H18        -1.0761   -1.1926    8.1413 H         1 <0>         0.0684
     34 H19        -0.9187   -0.4036   -2.4265 H         1 <0>         0.3961
     35 H20         0.4799   -0.9345   -3.1912 H         1 <0>         0.4288
     36 H21        -1.8641   -0.1783   -0.8050 H         1 <0>         0.4328
     37 H22        -1.3624   -1.5214    0.0069 H         1 <0>         0.4419
     38 H23        -1.8484   -0.1871    0.8426 H         1 <0>         0.4407
@<TRIPOS>BOND
     1    1    2 1
     2    1   16 1
     3    1   17 1
     4    1   18 1
     5    2    3 1
     6    2   12 1
     7    2   15 1
     8    3    4 1
     9    3   19 1
    10    3   20 1
    11    4    5 1
    12    4   21 1
    13    4   22 1
    14    5    6 1
    15    6    7 1
    16    6   23 1
    17    6   24 1
    18    7   11 1
    19    7    8 1
    20    7   25 1
    21    8    9 1
    22    8   26 1
    23    8   27 1
    24    9   10 1
    25    9   28 1
    26    9   29 1
    27   10   11 1
    28   10   30 1
    29   10   31 1
    30   11   32 1
    31   11   33 1
    32   12   13 2
    33   12   14 am
    34   14   34 1
    35   14   35 1
    36   15   36 1
    37   15   37 1
    38   15   38 1
@<TRIPOS>MOLECULE
ZINC41050625
   26    27     0     0     0
SMALL
USER_CHARGES

@<TRIPOS>ATOM
      1 C1         -0.0187    1.5258    0.0104 C.3       1 <0>        -0.1487
      2 C2          1.3165    0.7789   -0.0063 C.3       1 <0>        -0.1673
      3 C3          0.0021   -0.0041    0.0020 C.3       1 <0>        -0.2160
      4 C4         -0.4085   -0.7090   -1.2923 C.3       1 <0>         0.0286
      5 N1         -0.4409   -2.1608   -1.0702 N.4       1 <0>        -0.5048
      6 C5         -0.8351   -2.8377   -2.3129 C.3       1 <0>         0.1068
      7 C6         -0.8683   -4.3270   -2.0850 C.2       1 <0>         0.1814
      8 N2          0.1600   -5.1588   -2.2569 N.2       1 <0>        -0.5724
      9 C7         -0.2113   -6.3880   -1.9700 C.2       1 <0>         0.5585
     10 N3         -1.5100   -6.3532   -1.6036 N.pl3     1 <0>        -0.4954
     11 H1         -2.0589   -7.1066   -1.3354 H         1 <0>         0.4507
     12 N4         -1.9068   -5.0084   -1.6823 N.2       1 <0>        -0.2808
     13 N5          0.5872   -7.5158   -2.0331 N.pl3     1 <0>        -0.8126
     14 H2         -0.3072    2.0201    0.9381 H         1 <0>         0.1121
     15 H3         -0.3248    2.0300   -0.9061 H         1 <0>         0.1090
     16 H4          1.8888    0.7918   -0.9339 H         1 <0>         0.1078
     17 H5          1.9064    0.7818    0.9103 H         1 <0>         0.1097
     18 H6         -0.2728   -0.5162    0.9241 H         1 <0>         0.1259
     19 H7         -1.3977   -0.3657   -1.5950 H         1 <0>         0.1378
     20 H8          0.3122   -0.4774   -2.0766 H         1 <0>         0.1357
     21 H9          0.4749   -2.4786   -0.7900 H         1 <0>         0.4342
     22 H10        -1.8243   -2.4943   -2.6156 H         1 <0>         0.1555
     23 H11        -0.1144   -2.6061   -3.0972 H         1 <0>         0.1588
     24 H12         1.5137   -7.4392   -2.3098 H         1 <0>         0.4328
     25 H13         0.2206   -8.3833   -1.8007 H         1 <0>         0.4222
     26 H14        -1.1080   -2.3752   -0.3442 H         1 <0>         0.4307
@<TRIPOS>BOND
     1    1    3 1
     2    1    2 1
     3    1   14 1
     4    1   15 1
     5    2    3 1
     6    2   16 1
     7    2   17 1
     8    3    4 1
     9    3   18 1
    10    4    5 1
    11    4   19 1
    12    4   20 1
    13    5    6 1
    14    5   21 1
    15    5   26 1
    16    6    7 1
    17    6   22 1
    18    6   23 1
    19    7   12 2
    20    7    8 1
    21    8    9 2
    22    9   10 1
    23    9   13 1
    24   10   11 1
    25   10   12 1
    26   13   24 1
    27   13   25 1
@<TRIPOS>MOLECULE
ZINC45221138
   36    36     0     0     0
SMALL
USER_CHARGES

@<TRIPOS>ATOM
      1 C1         -0.0187    1.5258    0.0104 C.3       1 <0>        -0.1751
      2 C2          0.0021   -0.0041    0.0020 C.3       1 <0>        -0.1443
      3 C3          0.7182   -0.4975   -1.2568 C.3       1 <0>         0.0189
      4 H1          1.7163   -0.0626   -1.3100 H         1 <0>         0.1378
      5 C4          0.8170   -2.0373   -1.2351 C.3       1 <0>        -0.1368
      6 C5         -0.3883   -2.4773   -2.1071 C.3       1 <0>        -0.1500
      7 C6         -0.4212   -1.3615   -3.1811 C.3       1 <0>         0.0105
      8 N1         -0.0566   -0.1230   -2.4540 N.4       1 <0>        -0.3810
      9 C7          0.7576    0.7407   -3.3195 C.3       1 <0>         0.0183
     10 C8         -0.0900    1.2277   -4.4965 C.3       1 <0>         0.0800
     11 C9         -1.2175    2.1223   -3.9774 C.3       1 <0>        -0.1590
     12 C10         0.7757    2.0121   -5.4485 C.2       1 <0>         0.4939
     13 O1          1.7830    2.5544   -5.0456 O.2       1 <0>        -0.5224
     14 N2          0.4307    2.1109   -6.7476 N.am      1 <0>        -0.8430
     15 N3         -0.6653    0.0717   -5.1971 N.3       1 <0>        -0.8406
     16 H2          1.0039    1.9031    0.0027 H         1 <0>         0.0721
     17 H3         -0.5459    1.8868   -0.8726 H         1 <0>         0.0491
     18 H4         -0.5289    1.8773    0.9072 H         1 <0>         0.0836
     19 H5          0.5293   -0.3651    0.8851 H         1 <0>         0.1125
     20 H6         -1.0205   -0.3814    0.0098 H         1 <0>         0.0877
     21 H7          1.7555   -2.3696   -1.6790 H         1 <0>         0.0986
     22 H8          0.7153   -2.4157   -0.2179 H         1 <0>         0.1120
     23 H9         -0.2067   -3.4513   -2.5613 H         1 <0>         0.1147
     24 H10        -1.3094   -2.4855   -1.5243 H         1 <0>         0.0957
     25 H11         0.3073   -1.5679   -3.9652 H         1 <0>         0.1240
     26 H12        -1.4214   -1.2724   -3.6052 H         1 <0>         0.1486
     27 H13         1.1116    1.5983   -2.7474 H         1 <0>         0.1443
     28 H14         1.6115    0.1771   -3.6954 H         1 <0>         0.1333
     29 H15        -0.7906    2.9800   -3.4577 H         1 <0>         0.0882
     30 H16        -1.8213    2.4692   -4.8160 H         1 <0>         0.0890
     31 H17        -1.8437    1.5549   -3.2889 H         1 <0>         0.0756
     32 H18        -0.3748    1.6772   -7.0698 H         1 <0>         0.4021
     33 H19         0.9880    2.6158   -7.3603 H         1 <0>         0.4173
     34 H20        -1.2811    0.3684   -5.9392 H         1 <0>         0.3654
     35 H21         0.0598   -0.5350   -5.5497 H         1 <0>         0.3598
     36 H22        -0.8935    0.3680   -2.1770 H         1 <0>         0.4195
@<TRIPOS>BOND
     1    1    2 1
     2    1   16 1
     3    1   17 1
     4    1   18 1
     5    2    3 1
     6    2   19 1
     7    2   20 1
     8    3    4 1
     9    3    8 1
    10    3    5 1
    11    5    6 1
    12    5   21 1
    13    5   22 1
    14    6    7 1
    15    6   23 1
    16    6   24 1
    17    7    8 1
    18    7   25 1
    19    7   26 1
    20    8    9 1
    21    8   36 1
    22    9   10 1
    23    9   27 1
    24    9   28 1
    25   10   11 1
    26   10   12 1
    27   10   15 1
    28   11   29 1
    29   11   30 1
    30   11   31 1
    31   12   13 2
    32   12   14 am
    33   14   32 1
    34   14   33 1
    35   15   34 1
    36   15   35 1
@<TRIPOS>MOLECULE
ZINC51820768
   26    25     0     0     0
SMALL
USER_CHARGES

@<TRIPOS>ATOM
      1 C1         -0.0187    1.5258    0.0104 C.3       1 <0>        -0.1922
      2 C2          0.0021   -0.0041    0.0020 C.3       1 <0>         0.1053
      3 H1         -1.0205   -0.3814    0.0098 H         1 <0>         0.0584
      4 C3          0.7182   -0.4975   -1.2568 C.3       1 <0>         0.0599
      5 N1          0.6338   -1.9624   -1.3257 N.3       1 <0>        -0.5257
      6 C4         -0.7547   -2.4013   -1.5189 C.3       1 <0>        -0.0046
      7 C5          1.5050   -2.4907   -2.3840 C.3       1 <0>         0.0419
      8 C6          1.5836   -3.9911   -2.2676 C.cat     1 <0>         0.5564
      9 N2          2.5228   -4.5478   -1.5225 N.pl3     1 <0>        -0.7388
     10 N3          0.7136   -4.7504   -2.9105 N.pl3     1 <0>        -0.7583
     11 O1          0.6932   -0.4774    1.1597 O.3       1 <0>        -0.5592
     12 H2          1.0039    1.9031    0.0027 H         1 <0>         0.0691
     13 H3         -0.5459    1.8868   -0.8726 H         1 <0>         0.0687
     14 H4         -0.5289    1.8773    0.9072 H         1 <0>         0.0688
     15 H5          0.2444   -0.0644   -2.1377 H         1 <0>         0.0665
     16 H6          1.7648   -0.1951   -1.2215 H         1 <0>         0.0965
     17 H7         -1.1413   -1.9848   -2.4490 H         1 <0>         0.0471
     18 H8         -0.7885   -3.4897   -1.5665 H         1 <0>         0.0657
     19 H9         -1.3646   -2.0549   -0.6845 H         1 <0>         0.0942
     20 H10         1.0964   -2.2228   -3.3584 H         1 <0>         0.1000
     21 H11         2.5030   -2.0653   -2.2792 H         1 <0>         0.1374
     22 H12         3.1613   -3.9906   -1.0506 H         1 <0>         0.4514
     23 H13         0.0244   -4.3419   -3.4574 H         1 <0>         0.4460
     24 H14         0.7642   -5.7162   -2.8356 H         1 <0>         0.4313
     25 H15         0.2938   -0.2021    1.9962 H         1 <0>         0.3840
     26 H16         2.5734   -5.5136   -1.4475 H         1 <0>         0.4305
@<TRIPOS>BOND
     1    1    2 1
     2    1   12 1
     3    1   13 1
     4    1   14 1
     5    2    3 1
     6    2    4 1
     7    2   11 1
     8    4    5 1
     9    4   15 1
    10    4   16 1
    11    5    6 1
    12    5    7 1
    13    6   17 1
    14    6   18 1
    15    6   19 1
    16    7    8 1
    17    7   20 1
    18    7   21 1
    19    8    9 2
    20    8   10 1
    21    9   22 1
    22    9   26 1
    23   10   23 1
    24   10   24 1
    25   11   25 1
@<TRIPOS>MOLECULE
ZINC35149279
   28    27     0     0     0
SMALL
USER_CHARGES

@<TRIPOS>ATOM
      1 C1         -0.0187    1.5258    0.0104 C.3       1 <0>        -0.1837
      2 C2          0.0021   -0.0041    0.0020 C.3       1 <0>         0.0001
      3 H1         -1.0205   -0.3814    0.0098 H         1 <0>         0.1707
      4 C3          0.7074   -0.4901   -1.2379 C.2       1 <0>         0.5111
      5 O1          1.7039   -1.1744   -1.1398 O.2       1 <0>        -0.5213
      6 N1          0.2309   -0.1642   -2.4557 N.am      1 <0>        -0.8229
      7 N2          0.7126   -0.4907    1.1921 N.4       1 <0>        -0.4804
      8 C4         -0.0398   -0.1189    2.3978 C.3       1 <0>         0.0016
      9 H2         -0.2092    0.9579    2.4027 H         1 <0>         0.1695
     10 C5         -1.3855   -0.8468    2.4039 C.3       1 <0>        -0.1830
     11 C6          0.7479   -0.5091    3.6218 C.2       1 <0>         0.5007
     12 O2          1.8296   -1.0442    3.5016 O.2       1 <0>        -0.5192
     13 N3          0.2504   -0.2633    4.8500 N.am      1 <0>        -0.7041
     14 C7          1.0162   -0.6427    6.0399 C.3       1 <0>         0.0776
     15 H3          1.0039    1.9031    0.0027 H         1 <0>         0.0936
     16 H4         -0.5459    1.8868   -0.8726 H         1 <0>         0.1157
     17 H5         -0.5289    1.8773    0.9072 H         1 <0>         0.0973
     18 H6         -0.5660    0.3831   -2.5342 H         1 <0>         0.4127
     19 H7          0.6850   -0.4770   -3.2538 H         1 <0>         0.4258
     20 H8          0.7982   -1.4950    1.1455 H         1 <0>         0.4405
     21 H9         -1.9553   -0.5646    1.5185 H         1 <0>         0.0968
     22 H10        -1.2162   -1.9236    2.3989 H         1 <0>         0.0933
     23 H11        -1.9438   -0.5709    3.2985 H         1 <0>         0.1149
     24 H12        -0.6148    0.1647    4.9461 H         1 <0>         0.4119
     25 H13         1.1855   -1.7194    6.0350 H         1 <0>         0.0738
     26 H14         1.9749   -0.1240    6.0356 H         1 <0>         0.0738
     27 H15         0.4579   -0.3668    6.9345 H         1 <0>         0.0928
     28 H16         1.6317   -0.0761    1.2281 H         1 <0>         0.4404
@<TRIPOS>BOND
     1    1    2 1
     2    1   15 1
     3    1   16 1
     4    1   17 1
     5    2    3 1
     6    2    4 1
     7    2    7 1
     8    4    5 2
     9    4    6 am
    10    6   18 1
    11    6   19 1
    12    7    8 1
    13    7   20 1
    14    7   28 1
    15    8    9 1
    16    8   10 1
    17    8   11 1
    18   10   21 1
    19   10   22 1
    20   10   23 1
    21   11   12 2
    22   11   13 am
    23   13   14 1
    24   13   24 1
    25   14   25 1
    26   14   26 1
    27   14   27 1
@<TRIPOS>MOLECULE
ZINC66153304
   34    35     0     0     0
SMALL
USER_CHARGES

@<TRIPOS>ATOM
      1 C1         -0.0178    1.4648    0.0101 C.3       1 <0>        -0.0466
      2 N1          0.0021   -0.0041    0.0020 N.4       1 <0>        -0.3814
      3 C2          0.6802   -0.4759   -1.2119 C.3       1 <0>        -0.0238
      4 C3          0.6009   -2.0047   -1.2786 C.3       1 <0>         0.1175
      5 N2          1.1441   -2.5548   -0.0269 N.pl3     1 <0>        -0.6596
      6 C4          0.6349   -2.0181    1.2446 C.3       1 <0>         0.1173
      7 C5          0.7126   -0.4887    1.1922 C.3       1 <0>        -0.0236
      8 C6          2.1205   -3.5626   -0.0455 C.ar      1 <0>         0.0003
      9 C7          3.4650   -3.2256   -0.0558 C.ar      1 <0>        -0.0250
     10 C8          4.4278   -4.2176   -0.0746 C.ar      1 <0>        -0.2449
     11 C9          4.0511   -5.5540   -0.0826 C.ar      1 <0>         0.2729
     12 C10         2.7059   -5.8970   -0.0723 C.ar      1 <0>        -0.2742
     13 C11         1.7389   -4.9038   -0.0477 C.ar      1 <0>         0.2667
     14 N3          0.3817   -5.2467   -0.0314 N.pl3     1 <0>        -0.8705
     15 N4          5.0283   -6.5561   -0.1016 N.pl3     1 <0>        -0.8715
     16 H1          1.0047    1.8421    0.0024 H         1 <0>         0.1203
     17 H2         -0.5450    1.8259   -0.8730 H         1 <0>         0.1229
     18 H3         -0.5280    1.8163    0.9069 H         1 <0>         0.1229
     19 H4          0.1945   -0.0482   -2.0890 H         1 <0>         0.1336
     20 H5          1.7251   -0.1668   -1.1880 H         1 <0>         0.1293
     21 H6         -0.4382   -2.3129   -1.3936 H         1 <0>         0.0712
     22 H7          1.1887   -2.3654   -2.1226 H         1 <0>         0.1150
     23 H8         -0.4008   -2.3277    1.3844 H         1 <0>         0.0712
     24 H9          1.2452   -2.3877    2.0687 H         1 <0>         0.1150
     25 H10         1.7566   -0.1792    1.1434 H         1 <0>         0.1293
     26 H11         0.2508   -0.0704    2.0865 H         1 <0>         0.1336
     27 H12         3.7608   -2.1869   -0.0496 H         1 <0>         0.1163
     28 H13         5.4747   -3.9526   -0.0833 H         1 <0>         0.1211
     29 H14         2.4130   -6.9365   -0.0789 H         1 <0>         0.1223
     30 H15        -0.2942   -4.5511   -0.0186 H         1 <0>         0.3948
     31 H16         0.1172   -6.1800   -0.0330 H         1 <0>         0.4006
     32 H17         5.9683   -6.3168   -0.1091 H         1 <0>         0.4028
     33 H18         4.7654   -7.4898   -0.1072 H         1 <0>         0.4017
     34 H19        -0.9449   -0.3521    0.0122 H         1 <0>         0.4225
@<TRIPOS>BOND
     1    1    2 1
     2    1   16 1
     3    1   17 1
     4    1   18 1
     5    2    7 1
     6    2    3 1
     7    2   34 1
     8    3    4 1
     9    3   19 1
    10    3   20 1
    11    4    5 1
    12    4   21 1
    13    4   22 1
    14    5    6 1
    15    5    8 1
    16    6    7 1
    17    6   23 1
    18    6   24 1
    19    7   25 1
    20    7   26 1
    21    8   13 ar
    22    8    9 ar
    23    9   10 ar
    24    9   27 1
    25   10   11 ar
    26   10   28 1
    27   11   12 ar
    28   11   15 1
    29   12   13 ar
    30   12   29 1
    31   13   14 1
    32   14   30 1
    33   14   31 1
    34   15   32 1
    35   15   33 1
@<TRIPOS>MOLECULE
ZINC20805674
   49    52     0     0     0
SMALL
USER_CHARGES
5-[(4-methoxyphenyl)methylsulfanyl]-N-(1-naphthylmethyleneamino)-1,2,4-triazole-3,4-diamine
@<TRIPOS>ATOM
      1 C1          1.1223   -4.7712    0.5645 C.3       1 <0>         0.0220
      2 O1          0.0035   -4.1295   -0.0507 O.3       1 <0>        -0.3155
      3 C2         -0.0104   -2.7706   -0.0412 C.ar      1 <0>         0.1386
      4 C3         -1.0664   -2.0825   -0.6208 C.ar      1 <0>        -0.1520
      5 C4         -1.0784   -0.7011   -0.6094 C.ar      1 <0>        -0.0564
      6 C5         -0.0391   -0.0044   -0.0210 C.ar      1 <0>        -0.1237
      7 C6          1.0173   -0.6878    0.5523 C.ar      1 <0>        -0.0553
      8 C7          1.0312   -2.0692    0.5486 C.ar      1 <0>        -0.2090
      9 C8         -0.0547    1.5025   -0.0100 C.3       1 <0>        -0.0525
     10 S1         -0.8917    2.0863    1.4848 S.3       1 <0>        -0.0009
     11 C9         -0.7686    3.8274    1.2442 C.2       1 <0>         0.1857
     12 N1         -0.2036    4.4267    0.2231 N.2       1 <0>        -0.2984
     13 N2         -0.3190    5.8097    0.4148 N.2       1 <0>        -0.3163
     14 C10        -0.9504    6.0104    1.5462 C.2       1 <0>         0.4850
     15 N3         -1.2498    4.7900    2.0853 N.pl3     1 <0>        -0.2659
     16 N4         -1.9110    4.5718    3.2605 N.3       1 <0>        -0.7780
     17 N5         -1.2646    7.2442    2.0968 N.pl3     1 <0>        -0.5644
     18 N6         -0.9013    8.4218    1.4302 N.2       1 <0>        -0.1925
     19 C11        -1.1960    9.5784    1.9463 C.2       1 <0>         0.0998
     20 C12        -0.8147   10.8141    1.2468 C.ar      1 <0>        -0.0463
     21 C13        -1.2181   12.0550    1.7269 C.ar      1 <0>        -0.0777
     22 C14        -0.8505   13.2199    1.0681 C.ar      1 <0>        -0.1278
     23 C15        -0.1012   13.1968   -0.0683 C.ar      1 <0>        -0.0829
     24 C16         0.3364   11.9783   -0.6138 C.ar      1 <0>        -0.0584
     25 C17        -0.0085   10.7639    0.0284 C.ar      1 <0>        -0.0316
     26 C18         0.4263    9.5478   -0.5116 C.ar      1 <0>        -0.1113
     27 C19         1.1766    9.5459   -1.6497 C.ar      1 <0>        -0.1122
     28 C20         1.5173   10.7383   -2.2841 C.ar      1 <0>        -0.1133
     29 C21         1.1114   11.9386   -1.7859 C.ar      1 <0>        -0.1131
     30 H1          1.0075   -5.8624    0.4867 H         1 <0>         0.1038
     31 H2          1.1732   -4.4825    1.6247 H         1 <0>         0.0581
     32 H3          2.0474   -4.4626    0.0556 H         1 <0>         0.0584
     33 H4         -1.8782   -2.6262   -1.0808 H         1 <0>         0.1351
     34 H5         -1.9004   -0.1650   -1.0602 H         1 <0>         0.1347
     35 H6          1.8303   -0.1413    1.0071 H         1 <0>         0.1300
     36 H7          1.8544   -2.6027    1.0005 H         1 <0>         0.1321
     37 H8          0.9784    1.8800   -0.0229 H         1 <0>         0.1084
     38 H9         -0.5905    1.8702   -0.8976 H         1 <0>         0.1092
     39 H10        -2.2571    5.4243    3.8634 H         1 <0>         0.4361
     40 H11        -2.0974    3.5436    3.6040 H         1 <0>         0.4482
     41 H12        -1.7990    7.2981    3.0568 H         1 <0>         0.4086
     42 H13        -1.7305    9.6322    2.9062 H         1 <0>         0.1305
     43 H14        -1.8179   12.1131    2.6231 H         1 <0>         0.1301
     44 H15        -1.1729   14.1712    1.4648 H         1 <0>         0.1273
     45 H16         0.1599   14.1247   -0.5553 H         1 <0>         0.1277
     46 H17         0.1689    8.6164   -0.0293 H         1 <0>         0.1720
     47 H18         1.5115    8.6070   -2.0653 H         1 <0>         0.1248
     48 H19         2.1127   10.7102   -3.1847 H         1 <0>         0.1223
     49 H20         1.3837   12.8551   -2.2881 H         1 <0>         0.1268
@<TRIPOS>BOND
     1    1    2 1
     2    1   30 1
     3    1   31 1
     4    1   32 1
     5    2    3 1
     6    3    8 ar
     7    3    4 ar
     8    4    5 ar
     9    4   33 1
    10    5    6 ar
    11    5   34 1
    12    6    7 ar
    13    6    9 1
    14    7    8 ar
    15    7   35 1
    16    8   36 1
    17    9   10 1
    18    9   37 1
    19    9   38 1
    20   10   11 1
    21   11   15 1
    22   11   12 2
    23   12   13 1
    24   13   14 2
    25   14   15 1
    26   14   17 1
    27   15   16 1
    28   16   39 1
    29   16   40 1
    30   17   18 1
    31   17   41 1
    32   18   19 2
    33   19   20 1
    34   19   42 1
    35   20   25 ar
    36   20   21 ar
    37   21   22 ar
    38   21   43 1
    39   22   23 ar
    40   22   44 1
    41   23   24 ar
    42   23   45 1
    43   24   29 ar
    44   24   25 ar
    45   25   26 ar
    46   26   27 ar
    47   26   46 1
    48   27   28 ar
    49   27   47 1
    50   28   29 ar
    51   28   48 1
    52   29   49 1
@<TRIPOS>MOLECULE
ZINC44122527
   55    56     0     0     0
SMALL
USER_CHARGES

@<TRIPOS>ATOM
      1 C1          0.0200    1.8711    0.2038 C.3       1 <0>        -0.1521
      2 C2          0.2188    0.3541    0.1983 C.3       1 <0>        -0.1028
      3 C3          0.9304   -0.0717    1.4842 C.3       1 <0>        -0.1381
      4 C4         -1.1430   -0.3385    0.1158 C.3       1 <0>         0.2154
      5 H1         -1.0080   -1.4167    0.2013 H         1 <0>         0.0982
      6 C5         -1.7909   -0.0166   -1.2062 C.ar      1 <0>        -0.1305
      7 C6         -2.4293    1.1968   -1.3845 C.ar      1 <0>        -0.0730
      8 C7         -3.0245    1.4941   -2.5952 C.ar      1 <0>        -0.1492
      9 C8         -2.9808    0.5742   -3.6328 C.ar      1 <0>         0.1309
     10 C9         -2.3392   -0.6424   -3.4514 C.ar      1 <0>        -0.2041
     11 C10        -1.7411   -0.9328   -2.2405 C.ar      1 <0>        -0.0638
     12 O1         -3.5659    0.8641   -4.8246 O.3       1 <0>        -0.3171
     13 C11        -3.4816   -0.1301   -5.8476 C.3       1 <0>         0.0260
     14 N1         -1.9984    0.1346    1.2070 N.am      1 <0>        -0.7323
     15 C12        -1.9225   -0.4437    2.4219 C.2       1 <0>         0.7057
     16 O2         -1.1441   -1.3582    2.6124 O.2       1 <0>        -0.5649
     17 N2         -2.7095   -0.0085    3.4258 N.am      1 <0>        -0.6869
     18 C13        -2.7093   -0.6778    4.6567 C.ar      1 <0>         0.1562
     19 C14        -2.9034    0.0332    5.8336 C.ar      1 <0>        -0.1295
     20 C15        -2.9028   -0.6262    7.0465 C.ar      1 <0>        -0.0974
     21 C16        -2.7084   -2.0005    7.0895 C.ar      1 <0>         0.1243
     22 C17        -2.5147   -2.7115    5.9126 C.ar      1 <0>        -0.1208
     23 C18        -2.5206   -2.0528    4.6993 C.ar      1 <0>        -0.1008
     24 N3         -2.7073   -2.6696    8.3204 N.am      1 <0>        -0.6719
     25 C19        -3.5305   -2.2652    9.3079 C.2       1 <0>         0.5125
     26 O3         -4.2109   -1.2718    9.1617 O.2       1 <0>        -0.4980
     27 C20        -3.6056   -3.0473   10.5939 C.3       1 <0>         0.0445
     28 O4         -4.5408   -2.4241   11.4765 O.3       1 <0>        -0.3666
     29 C21        -4.6881   -3.0905   12.7320 C.3       1 <0>         0.0293
     30 H2          0.9902    2.3645    0.2626 H         1 <0>         0.0552
     31 H3         -0.4869    2.1744   -0.7123 H         1 <0>         0.0608
     32 H4         -0.5849    2.1552    1.0649 H         1 <0>         0.0528
     33 H5          0.8237    0.0700   -0.6628 H         1 <0>         0.0791
     34 H6          0.3255    0.2124    2.3453 H         1 <0>         0.0579
     35 H7          1.0720   -1.1524    1.4803 H         1 <0>         0.0603
     36 H8          1.9005    0.4217    1.5430 H         1 <0>         0.0458
     37 H9         -2.4631    1.9126   -0.5765 H         1 <0>         0.1287
     38 H10        -3.5236    2.4418   -2.7338 H         1 <0>         0.1326
     39 H11        -2.3039   -1.3603   -4.2576 H         1 <0>         0.1307
     40 H12        -1.2377   -1.8780   -2.1002 H         1 <0>         0.1284
     41 H13        -2.4345   -0.3286   -6.0760 H         1 <0>         0.0569
     42 H14        -3.9586   -1.0476   -5.5027 H         1 <0>         0.0567
     43 H15        -3.9877    0.2275   -6.7443 H         1 <0>         0.1019
     44 H16        -2.6194    0.8641    1.0550 H         1 <0>         0.3959
     45 H17        -3.2760    0.7681    3.2961 H         1 <0>         0.4062
     46 H18        -3.0546    1.1020    5.8001 H         1 <0>         0.1287
     47 H19        -3.0531   -0.0731    7.9619 H         1 <0>         0.1419
     48 H20        -2.3636   -3.7804    5.9460 H         1 <0>         0.1289
     49 H21        -2.3740   -2.6064    3.7836 H         1 <0>         0.1408
     50 H22        -2.1140   -3.4238    8.4618 H         1 <0>         0.4117
     51 H23        -3.9300   -4.0660   10.3812 H         1 <0>         0.0848
     52 H24        -2.6222   -3.0698   11.0635 H         1 <0>         0.0844
     53 H25        -5.0350   -4.1100   12.5637 H         1 <0>         0.0457
     54 H26        -3.7271   -3.1138   13.2459 H         1 <0>         0.0458
     55 H27        -5.4146   -2.5560   13.3441 H         1 <0>         0.0939
@<TRIPOS>BOND
     1    1    2 1
     2    1   30 1
     3    1   31 1
     4    1   32 1
     5    2    3 1
     6    2    4 1
     7    2   33 1
     8    3   34 1
     9    3   35 1
    10    3   36 1
    11    4    5 1
    12    4    6 1
    13    4   14 1
    14    6   11 ar
    15    6    7 ar
    16    7    8 ar
    17    7   37 1
    18    8    9 ar
    19    8   38 1
    20    9   10 ar
    21    9   12 1
    22   10   11 ar
    23   10   39 1
    24   11   40 1
    25   12   13 1
    26   13   41 1
    27   13   42 1
    28   13   43 1
    29   14   15 am
    30   14   44 1
    31   15   16 2
    32   15   17 am
    33   17   18 1
    34   17   45 1
    35   18   23 ar
    36   18   19 ar
    37   19   20 ar
    38   19   46 1
    39   20   21 ar
    40   20   47 1
    41   21   22 ar
    42   21   24 1
    43   22   23 ar
    44   22   48 1
    45   23   49 1
    46   24   25 am
    47   24   50 1
    48   25   26 2
    49   25   27 1
    50   27   28 1
    51   27   51 1
    52   27   52 1
    53   28   29 1
    54   29   53 1
    55   29   54 1
    56   29   55 1
@<TRIPOS>MOLECULE
ZINC58385511
   52    55     0     0     0
SMALL
USER_CHARGES

@<TRIPOS>ATOM
      1 C1         -0.0187    1.5258    0.0104 C.3       1 <0>        -0.1730
      2 C2          0.0021   -0.0041    0.0020 C.3       1 <0>         0.0833
      3 C3          0.7421   -0.5109    1.2415 C.3       1 <0>        -0.1497
      4 O1         -1.3386   -0.4987    0.0122 O.3       1 <0>        -0.3717
      5 C4         -1.8963   -0.6929   -1.2891 C.3       1 <0>         0.1244
      6 C5         -3.3046   -1.2135   -1.1594 C.2       1 <0>        -0.0784
      7 C6         -3.7213   -2.6135   -1.0876 C.ar      1 <0>        -0.1312
      8 C7         -3.0423   -3.8341   -1.1117 C.ar      1 <0>        -0.0561
      9 C8         -3.7455   -5.0021   -1.0228 C.ar      1 <0>        -0.1351
     10 C9         -5.1291   -4.9832   -0.9093 C.ar      1 <0>        -0.0800
     11 C10        -5.8177   -3.7899   -0.8842 C.ar      1 <0>        -0.1103
     12 C11        -5.1237   -2.5884   -0.9723 C.ar      1 <0>         0.0713
     13 O2         -5.5096   -1.2977   -0.9747 O.3       1 <0>        -0.1825
     14 C12        -4.4431   -0.4775   -1.0797 C.2       1 <0>        -0.0124
     15 C13        -4.5048    0.9907   -1.1070 C.2       1 <0>         0.6048
     16 O3         -3.4814    1.6408   -1.2078 O.2       1 <0>        -0.5008
     17 N1         -5.6951    1.6169   -1.0205 N.am      1 <0>        -0.7133
     18 C14        -5.7566    3.0804   -1.0477 C.3       1 <0>         0.1893
     19 C15        -5.5320    3.6266    0.3637 C.3       1 <0>        -0.1612
     20 C16        -7.1102    3.5171   -1.5459 C.ar      1 <0>        -0.0846
     21 C17        -8.2468    2.8424   -1.1342 C.ar      1 <0>        -0.1019
     22 C18        -9.4916    3.2351   -1.5852 C.ar      1 <0>        -0.0968
     23 C19        -9.6034    4.3098   -2.4543 C.ar      1 <0>         0.0928
     24 C20        -8.4570    4.9903   -2.8696 C.ar      1 <0>         0.0946
     25 C21        -7.2120    4.5922   -2.4068 C.ar      1 <0>        -0.0891
     26 N2         -8.8791    6.0056   -3.7247 N.am      1 <0>        -0.6413
     27 H1         -8.3046    6.6465   -4.1720 H         1 <0>         0.4374
     28 C22       -10.2204    5.9454   -3.8249 C.2       1 <0>         0.6846
     29 O4        -10.9072    6.6927   -4.4963 O.2       1 <0>        -0.5512
     30 N3        -10.6864    4.9327   -3.0699 N.am      1 <0>        -0.6416
     31 H2        -11.6177    4.6800   -2.9715 H         1 <0>         0.4372
     32 H3          1.0039    1.9031    0.0027 H         1 <0>         0.0620
     33 H4         -0.5459    1.8868   -0.8726 H         1 <0>         0.0624
     34 H5         -0.5289    1.8773    0.9072 H         1 <0>         0.0622
     35 H6          0.5123   -0.3556   -0.8948 H         1 <0>         0.0589
     36 H7          0.2319   -0.1594    2.1383 H         1 <0>         0.0632
     37 H8          0.7568   -1.6008    1.2356 H         1 <0>         0.0600
     38 H9          1.7647   -0.1336    1.2338 H         1 <0>         0.0700
     39 H10        -1.9077    0.2563   -1.8248 H         1 <0>         0.0831
     40 H11        -1.2917   -1.4136   -1.8397 H         1 <0>         0.0590
     41 H12        -1.9661   -3.8544   -1.2005 H         1 <0>         0.1304
     42 H13        -3.2217   -5.9463   -1.0413 H         1 <0>         0.1339
     43 H14        -5.6719   -5.9144   -0.8402 H         1 <0>         0.1395
     44 H15        -6.8941   -3.7879   -0.7962 H         1 <0>         0.1368
     45 H16        -6.5111    1.0986   -0.9401 H         1 <0>         0.4068
     46 H17        -4.9833    3.4642   -1.7132 H         1 <0>         0.1037
     47 H18        -6.3053    3.2428    1.0291 H         1 <0>         0.0626
     48 H19        -4.5530    3.3108    0.7240 H         1 <0>         0.0691
     49 H20        -5.5778    4.7155    0.3434 H         1 <0>         0.0725
     50 H21        -8.1596    2.0051   -0.4576 H         1 <0>         0.1334
     51 H22       -10.3760    2.7062   -1.2621 H         1 <0>         0.1364
     52 H23        -6.3235    5.1188   -2.7224 H         1 <0>         0.1369
@<TRIPOS>BOND
     1    1    2 1
     2    1   32 1
     3    1   33 1
     4    1   34 1
     5    2    3 1
     6    2    4 1
     7    2   35 1
     8    3   36 1
     9    3   37 1
    10    3   38 1
    11    4    5 1
    12    5    6 1
    13    5   39 1
    14    5   40 1
    15    6   14 2
    16    6    7 1
    17    7   12 ar
    18    7    8 ar
    19    8    9 ar
    20    8   41 1
    21    9   10 ar
    22    9   42 1
    23   10   11 ar
    24   10   43 1
    25   11   12 ar
    26   11   44 1
    27   12   13 1
    28   13   14 1
    29   14   15 1
    30   15   16 2
    31   15   17 am
    32   17   18 1
    33   17   45 1
    34   18   19 1
    35   18   20 1
    36   18   46 1
    37   19   47 1
    38   19   48 1
    39   19   49 1
    40   20   25 ar
    41   20   21 ar
    42   21   22 ar
    43   21   50 1
    44   22   23 ar
    45   22   51 1
    46   23   30 1
    47   23   24 ar
    48   24   25 ar
    49   24   26 1
    50   25   52 1
    51   26   27 1
    52   26   28 am
    53   28   29 2
    54   28   30 am
    55   30   31 1
@<TRIPOS>MOLECULE
ZINC35476647
   52    54     0     0     0
SMALL
USER_CHARGES

@<TRIPOS>ATOM
      1 C1         -0.0187    1.5258    0.0104 C.3       1 <0>        -0.1540
      2 C2          0.0021   -0.0041    0.0020 C.3       1 <0>        -0.1520
      3 C3         -1.4333   -0.5336    0.0129 C.3       1 <0>        -0.0107
      4 N1         -1.4134   -2.0025    0.0048 N.4       1 <0>        -0.4997
      5 C4         -2.7915   -2.5110    0.0152 C.3       1 <0>         0.0715
      6 C5         -2.7711   -4.0178    0.0069 C.2       1 <0>         0.1800
      7 C6         -3.9707   -4.7269    0.0088 C.2       1 <0>        -0.3543
      8 C7         -3.9368   -6.0953    0.0012 C.2       1 <0>         0.4984
      9 O1         -5.0842   -6.8114    0.0024 O.3       1 <0>        -0.6253
     10 N2         -2.7286   -6.7239   -0.0080 N.pl3     1 <0>        -0.3494
     11 C8         -1.5737   -5.9937   -0.0095 C.2       1 <0>         0.4992
     12 N3         -1.6201   -4.6566   -0.0075 N.2       1 <0>        -0.5892
     13 N4         -0.5613   -6.8547   -0.0184 N.2       1 <0>        -0.5828
     14 C9         -1.0316   -8.1005   -0.0224 C.2       1 <0>         0.4965
     15 N5         -2.3478   -8.0720   -0.0164 N.2       1 <0>        -0.3724
     16 N6         -0.2521   -9.2546   -0.0321 N.pl3     1 <0>        -0.6978
     17 C10         1.2092   -9.1514   -0.0381 C.3       1 <0>         0.1904
     18 C11         1.8104  -10.5333   -0.0481 C.ar      1 <0>        -0.1124
     19 C12         2.0862  -11.1757    1.1444 C.ar      1 <0>        -0.0944
     20 C13         2.6376  -12.4433    1.1352 C.ar      1 <0>        -0.1213
     21 C14         2.9127  -13.0686   -0.0666 C.ar      1 <0>        -0.0676
     22 C15         2.6360  -12.4266   -1.2591 C.ar      1 <0>        -0.1180
     23 C16         2.0807  -11.1607   -1.2499 C.ar      1 <0>        -0.0948
     24 C17         3.5147  -14.4501   -0.0766 C.3       1 <0>        -0.0594
     25 C18         2.5727  -15.4117   -0.8038 C.3       1 <0>        -0.1454
     26 C19         4.8631  -14.4136   -0.7987 C.3       1 <0>        -0.1446
     27 H1          1.0039    1.9031    0.0027 H         1 <0>         0.0734
     28 H2         -0.5459    1.8868   -0.8726 H         1 <0>         0.0651
     29 H3         -0.5289    1.8773    0.9072 H         1 <0>         0.0651
     30 H4          0.5123   -0.3556   -0.8948 H         1 <0>         0.0866
     31 H5          0.5293   -0.3651    0.8851 H         1 <0>         0.0866
     32 H6         -1.9435   -0.1821    0.9097 H         1 <0>         0.1290
     33 H7         -1.9605   -0.1726   -0.8702 H         1 <0>         0.1289
     34 H8         -0.9411   -2.3279   -0.8254 H         1 <0>         0.4349
     35 H9         -3.3017   -2.1594    0.9120 H         1 <0>         0.1468
     36 H10        -3.3187   -2.1499   -0.8678 H         1 <0>         0.1468
     37 H11        -4.9153   -4.2034    0.0166 H         1 <0>         0.1473
     38 H12        -0.6768  -10.1267   -0.0348 H         1 <0>         0.4136
     39 H13         1.5315   -8.6085   -0.9266 H         1 <0>         0.0688
     40 H14         1.5395   -8.6180    0.8533 H         1 <0>         0.0688
     41 H15         1.8712  -10.6872    2.0833 H         1 <0>         0.1236
     42 H16         2.8537  -12.9449    2.0669 H         1 <0>         0.1223
     43 H17         2.8513  -12.9150   -2.1980 H         1 <0>         0.1222
     44 H18         1.8611  -10.6606   -2.1815 H         1 <0>         0.1234
     45 H19         3.6607  -14.7903    0.9486 H         1 <0>         0.0776
     46 H20         2.4267  -15.0715   -1.8290 H         1 <0>         0.0571
     47 H21         3.0081  -16.4109   -0.8110 H         1 <0>         0.0587
     48 H22         1.6121  -15.4377   -0.2893 H         1 <0>         0.0566
     49 H23         5.5343  -13.7286   -0.2807 H         1 <0>         0.0560
     50 H24         5.2986  -15.4128   -0.8060 H         1 <0>         0.0585
     51 H25         4.7171  -14.0734   -1.8239 H         1 <0>         0.0570
     52 H26        -0.9254   -2.3367    0.8222 H         1 <0>         0.4348
@<TRIPOS>BOND
     1    1    2 1
     2    1   27 1
     3    1   28 1
     4    1   29 1
     5    2    3 1
     6    2   30 1
     7    2   31 1
     8    3    4 1
     9    3   32 1
    10    3   33 1
    11    4    5 1
    12    4   34 1
    13    4   52 1
    14    5    6 1
    15    5   35 1
    16    5   36 1
    17    6   12 2
    18    6    7 1
    19    7    8 2
    20    7   37 1
    21    8    9 1
    22    8   10 1
    23   10   15 1
    24   10   11 1
    25   11   12 1
    26   11   13 2
    27   13   14 1
    28   14   15 2
    29   14   16 1
    30   16   17 1
    31   16   38 1
    32   17   18 1
    33   17   39 1
    34   17   40 1
    35   18   23 ar
    36   18   19 ar
    37   19   20 ar
    38   19   41 1
    39   20   21 ar
    40   20   42 1
    41   21   22 ar
    42   21   24 1
    43   22   23 ar
    44   22   43 1
    45   23   44 1
    46   24   25 1
    47   24   26 1
    48   24   45 1
    49   25   46 1
    50   25   47 1
    51   25   48 1
    52   26   49 1
    53   26   50 1
    54   26   51 1
@<TRIPOS>MOLECULE
ZINC67638216
   50    52     0     0     0
SMALL
USER_CHARGES

@<TRIPOS>ATOM
      1 C1         -0.0187    1.5258    0.0104 C.3       1 <0>        -0.1659
      2 C2          0.0021   -0.0041    0.0020 C.3       1 <0>         0.2534
      3 H1          0.5123   -0.3556   -0.8948 H         1 <0>         0.1402
      4 C3          0.7309   -0.5033    1.2229 C.2       1 <0>         0.2885
      5 N1          1.9373   -0.9939    1.2415 N.2       1 <0>        -0.5210
      6 C4          2.2743   -1.3406    2.4968 C.2       1 <0>         0.3018
      7 N2          1.2685   -1.0672    3.2908 N.2       1 <0>        -0.3265
      8 O1          0.2497   -0.5119    2.4726 O.3       1 <0>        -0.0979
      9 C5          3.5692   -1.9337    2.9129 C.ar      1 <0>        -0.0550
     10 C6          4.5650   -2.1712    1.9674 C.ar      1 <0>        -0.0331
     11 C7          5.7676   -2.7223    2.3586 C.ar      1 <0>        -0.1586
     12 C8          5.9862   -3.0396    3.6897 C.ar      1 <0>         0.1307
     13 C9          4.9987   -2.8055    4.6331 C.ar      1 <0>        -0.1579
     14 C10         3.7952   -2.2494    4.2513 C.ar      1 <0>        -0.0450
     15 F1          7.1654   -3.5792    4.0686 F         1 <0>        -0.1301
     16 N3         -1.3723   -0.5112    0.0124 N.am      1 <0>        -0.7456
     17 C11        -2.0508   -0.6427   -1.1446 C.2       1 <0>         0.7127
     18 O2         -1.5223   -0.3406   -2.1971 O.2       1 <0>        -0.5782
     19 N4         -3.3153   -1.1092   -1.1351 N.am      1 <0>        -0.7424
     20 C12        -4.0528   -1.2522   -2.3928 C.3       1 <0>         0.1414
     21 C13        -5.4529   -1.7973   -2.1038 C.3       1 <0>        -0.1437
     22 C14        -6.2232   -1.9466   -3.4173 C.3       1 <0>         0.1291
     23 N5         -7.5638   -2.4685   -3.1406 N.pl3     1 <0>        -0.7507
     24 C15        -8.4575   -2.6902   -4.1909 C.ar      1 <0>         0.2127
     25 C16        -8.0746   -2.4218   -5.4990 C.ar      1 <0>        -0.1976
     26 C17        -8.9605   -2.6425   -6.5352 C.ar      1 <0>        -0.0730
     27 C18       -10.2276   -3.1298   -6.2717 C.ar      1 <0>        -0.1787
     28 C19       -10.6119   -3.3980   -4.9707 C.ar      1 <0>        -0.0733
     29 C20        -9.7290   -3.1850   -3.9303 C.ar      1 <0>        -0.1960
     30 H2          1.0039    1.9031    0.0027 H         1 <0>         0.0798
     31 H3         -0.5459    1.8868   -0.8726 H         1 <0>         0.0901
     32 H4         -0.5289    1.8773    0.9072 H         1 <0>         0.0695
     33 H5          4.3953   -1.9245    0.9297 H         1 <0>         0.1510
     34 H6          6.5397   -2.9071    1.6264 H         1 <0>         0.1483
     35 H7          5.1730   -3.0546    5.6694 H         1 <0>         0.1475
     36 H8          3.0278   -2.0627    4.9880 H         1 <0>         0.1434
     37 H9         -1.7940   -0.7522    0.8520 H         1 <0>         0.4039
     38 H10        -3.7369   -1.3503   -0.2954 H         1 <0>         0.3990
     39 H11        -4.1345   -0.2799   -2.8786 H         1 <0>         0.0737
     40 H12        -3.5223   -1.9427   -3.0485 H         1 <0>         0.0731
     41 H13        -5.3712   -2.7696   -1.6179 H         1 <0>         0.0773
     42 H14        -5.9834   -1.1068   -1.4480 H         1 <0>         0.0777
     43 H15        -6.3049   -0.9743   -3.9032 H         1 <0>         0.0645
     44 H16        -5.6927   -2.6370   -4.0731 H         1 <0>         0.0642
     45 H17        -7.8309   -2.6601   -2.2280 H         1 <0>         0.3991
     46 H18        -7.0855   -2.0405   -5.7054 H         1 <0>         0.1200
     47 H19        -8.6636   -2.4341   -7.5524 H         1 <0>         0.1206
     48 H20       -10.9187   -3.3009   -7.0838 H         1 <0>         0.1180
     49 H21       -11.6022   -3.7785   -4.7684 H         1 <0>         0.1205
     50 H22       -10.0283   -3.3989   -2.9149 H         1 <0>         0.1182
@<TRIPOS>BOND
     1    1    2 1
     2    1   30 1
     3    1   31 1
     4    1   32 1
     5    2    3 1
     6    2    4 1
     7    2   16 1
     8    4    8 1
     9    4    5 2
    10    5    6 1
    11    6    7 2
    12    6    9 1
    13    7    8 1
    14    9   14 ar
    15    9   10 ar
    16   10   11 ar
    17   10   33 1
    18   11   12 ar
    19   11   34 1
    20   12   13 ar
    21   12   15 1
    22   13   14 ar
    23   13   35 1
    24   14   36 1
    25   16   17 am
    26   16   37 1
    27   17   18 2
    28   17   19 am
    29   19   20 1
    30   19   38 1
    31   20   21 1
    32   20   39 1
    33   20   40 1
    34   21   22 1
    35   21   41 1
    36   21   42 1
    37   22   23 1
    38   22   43 1
    39   22   44 1
    40   23   24 1
    41   23   45 1
    42   24   29 ar
    43   24   25 ar
    44   25   26 ar
    45   25   46 1
    46   26   27 ar
    47   26   47 1
    48   27   28 ar
    49   27   48 1
    50   28   29 ar
    51   28   49 1
    52   29   50 1
@<TRIPOS>MOLECULE
ZINC12146451
   55    58     0     0     0
SMALL
USER_CHARGES
3-(3-fluorophenyl)-5-[[[(2S)-2-hydroxy-3-methoxy-propyl]amino]methyl]-1-phenyl-7H-pyrazolo[4,5-e]pyridin-6-one
@<TRIPOS>ATOM
      1 C1         12.5014    4.7237    2.4717 C.3       1 <0>         0.0284
      2 O1         11.2551    4.9127    1.7986 O.3       1 <0>        -0.3780
      3 C2         10.1101    4.7333    2.6346 C.3       1 <0>         0.0305
      4 C3          8.8389    4.9588    1.8135 C.3       1 <0>         0.0840
      5 H1          8.8816    5.9394    1.3395 H         1 <0>         0.1319
      6 C4          7.6185    4.8899    2.7337 C.3       1 <0>        -0.0383
      7 C5          5.2032    5.0471    2.7980 C.3       1 <0>         0.0813
      8 C6          3.9737    5.2731    1.9563 C.2       1 <0>        -0.3315
      9 C7          3.2789    4.2109    1.4666 C.2       1 <0>         0.1200
     10 C8          2.1312    4.4458    0.6817 C.2       1 <0>        -0.2713
     11 C9          1.1674    3.5696    0.0096 C.2       1 <0>         0.1999
     12 N1          0.2916    4.3430   -0.5891 N.2       1 <0>        -0.2262
     13 N2          0.6079    5.6836   -0.3488 N.pl3     1 <0>        -0.3128
     14 C10         1.7263    5.7553    0.4196 C.2       1 <0>         0.3845
     15 N3          2.4468    6.8034    0.9268 N.am      1 <0>        -0.5998
     16 H2          2.1648    7.7134    0.7443 H         1 <0>         0.4245
     17 C11         3.5428    6.5824    1.6764 C.2       1 <0>         0.5627
     18 O2          4.1704    7.5302    2.1191 O.2       1 <0>        -0.5313
     19 C12        -0.1133    6.7833   -0.8310 C.ar      1 <0>         0.1188
     20 C13        -0.2324    7.9305   -0.0577 C.ar      1 <0>        -0.1376
     21 C14        -0.9394    9.0153   -0.5385 C.ar      1 <0>        -0.0894
     22 C15        -1.5382    8.9554   -1.7835 C.ar      1 <0>        -0.1023
     23 C16        -1.4258    7.8124   -2.5538 C.ar      1 <0>        -0.0918
     24 C17        -0.7154    6.7265   -2.0811 C.ar      1 <0>        -0.0949
     25 C18         1.1824    2.0876    0.0020 C.ar      1 <0>        -0.0094
     26 C19        -0.0166    1.3756    0.0096 C.ar      1 <0>        -0.0874
     27 C20         0.0021   -0.0041    0.0020 C.ar      1 <0>        -0.0823
     28 C21         1.2073   -0.6826   -0.0136 C.ar      1 <0>        -0.1287
     29 C22         2.4023    0.0182   -0.0212 C.ar      1 <0>         0.1034
     30 C23         2.3950    1.4006   -0.0133 C.ar      1 <0>        -0.1300
     31 F1          3.5763   -0.6502   -0.0360 F         1 <0>        -0.1321
     32 O3          8.7354    3.9481    0.8086 O.3       1 <0>        -0.5451
     33 H3         12.5850    5.4394    3.2894 H         1 <0>         0.0479
     34 H4         12.5494    3.7101    2.8697 H         1 <0>         0.0477
     35 H5         13.3206    4.8773    1.7692 H         1 <0>         0.0968
     36 H6         10.1440    5.4493    3.4557 H         1 <0>         0.0694
     37 H7         10.1084    3.7199    3.0359 H         1 <0>         0.0641
     38 H8          7.6975    5.6609    3.5002 H         1 <0>         0.1456
     39 H9          7.5757    3.9093    3.2077 H         1 <0>         0.1381
     40 H10         5.2654    5.8191    3.5649 H         1 <0>         0.1438
     41 H11         5.1437    4.0675    3.2725 H         1 <0>         0.1403
     42 H12         3.6016    3.2018    1.6763 H         1 <0>         0.1557
     43 H13         0.2307    7.9760    0.9169 H         1 <0>         0.1238
     44 H14        -1.0287    9.9094    0.0606 H         1 <0>         0.1423
     45 H15        -2.0945    9.8031   -2.1552 H         1 <0>         0.1402
     46 H16        -1.8943    7.7689   -3.5259 H         1 <0>         0.1430
     47 H17        -0.6280    5.8341   -2.6832 H         1 <0>         0.1408
     48 H18        -0.9588    1.9035    0.0169 H         1 <0>         0.1402
     49 H19        -0.9265   -0.5555    0.0079 H         1 <0>         0.1465
     50 H20         1.2168   -1.7625   -0.0202 H         1 <0>         0.1461
     51 H21         3.3266    1.9469   -0.0196 H         1 <0>         0.1368
     52 H22         8.6927    3.0478    1.1591 H         1 <0>         0.3875
     53 N4          6.3978    5.1082    1.9348 N.4       1 <0>        -0.5148
     54 H23         6.3313    4.3815    1.2125 H         1 <0>         0.4322
     55 H24         6.4460    6.0314    1.4881 H         1 <0>         0.4363
@<TRIPOS>BOND
     1    1    2 1
     2    1   33 1
     3    1   34 1
     4    1   35 1
     5    2    3 1
     6    3    4 1
     7    3   36 1
     8    3   37 1
     9    4    5 1
    10    4    6 1
    11    4   32 1
    12    6   38 1
    13    6   39 1
    14    6   53 1
    15    7    8 1
    16    7   40 1
    17    7   41 1
    18    7   53 1
    19    8   17 1
    20    8    9 2
    21    9   10 1
    22    9   42 1
    23   10   14 2
    24   10   11 1
    25   11   12 2
    26   11   25 1
    27   12   13 1
    28   13   14 1
    29   13   19 1
    30   14   15 1
    31   15   16 1
    32   15   17 am
    33   17   18 2
    34   19   24 ar
    35   19   20 ar
    36   20   21 ar
    37   20   43 1
    38   21   22 ar
    39   21   44 1
    40   22   23 ar
    41   22   45 1
    42   23   24 ar
    43   23   46 1
    44   24   47 1
    45   25   30 ar
    46   25   26 ar
    47   26   27 ar
    48   26   48 1
    49   27   28 ar
    50   27   49 1
    51   28   29 ar
    52   28   50 1
    53   29   30 ar
    54   29   31 1
    55   30   51 1
    56   32   52 1
    57   53   54 1
    58   53   55 1
@<TRIPOS>MOLECULE
ZINC29054913
   48    49     0     0     0
SMALL
USER_CHARGES

@<TRIPOS>ATOM
      1 C1         -3.3139    2.3364    1.5223 C.3       1 <0>         0.0339
      2 O1         -2.7355    1.0349    1.4056 O.3       1 <0>        -0.3933
      3 C2         -1.7390    0.9310    0.3866 C.3       1 <0>         0.0369
      4 C3         -1.1921   -0.4975    0.3519 C.3       1 <0>         0.1026
      5 N1         -2.2573   -1.4185   -0.0522 N.am      1 <0>        -0.5393
      6 C4         -3.0547   -1.9802    0.9037 C.2       1 <0>         0.5684
      7 C5         -4.0743   -2.8624    0.5062 C.2       1 <0>        -0.4593
      8 C6         -4.2265   -3.1333   -0.9292 C.2       1 <0>         0.5806
      9 O2         -5.0926   -3.8885   -1.3305 O.2       1 <0>        -0.5086
     10 N2         -3.3867   -2.5273   -1.7936 N.am      1 <0>        -0.6605
     11 H1         -3.4748   -2.6963   -2.7447 H         1 <0>         0.4342
     12 C7         -2.4335   -1.6892   -1.3549 C.2       1 <0>         0.7171
     13 O3         -1.7002   -1.1600   -2.1671 O.2       1 <0>        -0.5306
     14 C8         -4.9241   -3.4686    1.4559 C.2       1 <0>         0.4456
     15 O4         -4.8513   -3.1513    2.6260 O.2       1 <0>        -0.4935
     16 C9         -5.9220   -4.5096    1.0181 C.3       1 <0>         0.0269
     17 N3         -6.6798   -4.9825    2.1843 N.3       1 <0>        -0.5139
     18 C10        -5.8086   -5.7054    3.1205 C.3       1 <0>         0.0685
     19 C11        -5.2045   -6.8982    2.4254 C.2       1 <0>        -0.1982
     20 C12        -3.9034   -7.0466    2.3907 C.2       1 <0>        -0.1733
     21 C13        -7.8157   -5.8172    1.7709 C.3       1 <0>         0.1312
     22 C14        -8.7643   -5.9845    2.9299 C.2       1 <0>        -0.1193
     23 C15        -9.7577   -5.1617    3.3450 C.2       1 <0>        -0.1355
     24 C16       -10.5107   -5.5221    4.4473 C.2       1 <0>        -0.1339
     25 C17       -10.2320   -6.6892    5.0802 C.2       1 <0>        -0.1238
     26 S1         -8.8754   -7.3219    4.1072 S.3       1 <0>         0.0803
     27 Cl1       -10.9997   -7.3891    6.4710 Cl        1 <0>         0.0127
     28 N4         -2.8649   -1.6910    2.2197 N.pl3     1 <0>        -0.7784
     29 H2         -2.5344    3.0605    1.7596 H         1 <0>         0.0461
     30 H3         -3.7882    2.6091    0.5796 H         1 <0>         0.0436
     31 H4         -4.0602    2.3324    2.3167 H         1 <0>         0.0906
     32 H5         -2.1807    1.1745   -0.5797 H         1 <0>         0.0654
     33 H6         -0.9269    1.6259    0.6003 H         1 <0>         0.0788
     34 H7         -0.3713   -0.5551   -0.3630 H         1 <0>         0.1312
     35 H8         -0.8307   -0.7723    1.3429 H         1 <0>         0.1024
     36 H9         -6.6077   -4.0730    0.2919 H         1 <0>         0.1151
     37 H10        -5.3958   -5.3483    0.5623 H         1 <0>         0.0771
     38 H11        -5.0134   -5.0428    3.4622 H         1 <0>         0.1000
     39 H12        -6.3942   -6.0415    3.9761 H         1 <0>         0.0832
     40 H13        -5.8442   -7.6309    1.9559 H         1 <0>         0.1065
     41 H14        -3.2636   -6.3139    2.8601 H         1 <0>         0.0957
     42 H15        -3.4704   -7.9014    1.8925 H         1 <0>         0.0963
     43 H16        -8.3362   -5.3377    0.9418 H         1 <0>         0.1024
     44 H17        -7.4521   -6.7949    1.4549 H         1 <0>         0.0585
     45 H18        -9.9581   -4.2378    2.8228 H         1 <0>         0.1426
     46 H19       -11.3080   -4.8843    4.7991 H         1 <0>         0.1408
     47 H20        -2.0501   -1.2499    2.5067 H         1 <0>         0.4060
     48 H21        -3.5445   -1.9259    2.8708 H         1 <0>         0.4400
@<TRIPOS>BOND
     1    1    2 1
     2    1   29 1
     3    1   30 1
     4    1   31 1
     5    2    3 1
     6    3    4 1
     7    3   32 1
     8    3   33 1
     9    4    5 1
    10    4   34 1
    11    4   35 1
    12    5   12 am
    13    5    6 1
    14    6    7 2
    15    6   28 1
    16    7    8 1
    17    7   14 1
    18    8    9 2
    19    8   10 am
    20   10   11 1
    21   10   12 am
    22   12   13 2
    23   14   15 2
    24   14   16 1
    25   16   17 1
    26   16   36 1
    27   16   37 1
    28   17   18 1
    29   17   21 1
    30   18   19 1
    31   18   38 1
    32   18   39 1
    33   19   20 2
    34   19   40 1
    35   20   41 1
    36   20   42 1
    37   21   22 1
    38   21   43 1
    39   21   44 1
    40   22   26 1
    41   22   23 2
    42   23   24 1
    43   23   45 1
    44   24   25 2
    45   24   46 1
    46   25   26 1
    47   25   27 1
    48   28   47 1
    49   28   48 1
@<TRIPOS>MOLECULE
ZINC39676382
   71    75     0     0     0
SMALL
USER_CHARGES

@<TRIPOS>ATOM
      1 C1          1.0365    1.6910   -4.3131 C.3       1 <0>         0.0232
      2 O1          1.1001    0.2711   -4.4616 O.3       1 <0>        -0.3093
      3 C2          1.1444   -0.4671   -3.3214 C.ar      1 <0>         0.1663
      4 C3          1.2127   -1.8486   -3.3942 C.ar      1 <0>        -0.1699
      5 C4          1.2581   -2.6055   -2.2231 C.ar      1 <0>        -0.0627
      6 C5          1.2346   -1.9668   -0.9830 C.ar      1 <0>        -0.1301
      7 C6          1.1662   -0.5848   -0.9192 C.ar      1 <0>         0.1676
      8 C7          1.1269    0.1643   -2.0862 C.ar      1 <0>        -0.2719
      9 O2          1.1432    0.0384    0.2883 O.3       1 <0>        -0.3078
     10 C8          1.0721    1.4657    0.2805 C.3       1 <0>         0.0233
     11 C9          1.3305   -4.0807   -2.2960 C.2       1 <0>         0.5945
     12 O3          0.9318   -4.7554   -1.3669 O.2       1 <0>        -0.5189
     13 N1          1.8387   -4.6770   -3.3927 N.am      1 <0>        -0.6183
     14 C10         2.4851   -4.0324   -4.5599 C.3       1 <0>         0.1008
     15 C11         3.6582   -4.9699   -4.9236 C.3       1 <0>        -0.1152
     16 H1          4.5795   -4.6245   -4.4546 H         1 <0>         0.1138
     17 C12         3.2526   -6.3424   -4.3608 C.3       1 <0>        -0.0728
     18 C13         1.8830   -6.1267   -3.7006 C.3       1 <0>         0.1085
     19 C14         3.1418   -7.3642   -5.4883 C.3       1 <0>        -0.1467
     20 C15         2.7944   -8.7336   -4.8975 C.3       1 <0>        -0.0079
     21 N2          3.8366   -9.1367   -3.9458 N.4       1 <0>        -0.5043
     22 C16         3.8735   -8.1990   -2.8169 C.3       1 <0>        -0.0115
     23 C17         4.2666   -6.8070   -3.3197 C.3       1 <0>        -0.1343
     24 C18         3.8274   -5.0427   -6.4193 C.2       1 <0>         0.5192
     25 O4          2.8842   -4.8184   -7.1479 O.2       1 <0>        -0.5172
     26 N3          5.0270   -5.3570   -6.9473 N.am      1 <0>        -0.7292
     27 C19         5.1914   -5.4278   -8.4013 C.3       1 <0>         0.1199
     28 C20         6.6377   -5.8007   -8.7334 C.3       1 <0>        -0.0500
     29 C21         6.8069   -5.8735  -10.2291 C.2       1 <0>        -0.1775
     30 C22         7.0938   -4.7537  -11.1291 C.ar      1 <0>        -0.0910
     31 C23         7.2895   -3.3842  -10.9411 C.ar      1 <0>        -0.0642
     32 C24         7.5495   -2.5779  -12.0272 C.ar      1 <0>        -0.0548
     33 C25         7.6170   -3.1204  -13.3041 C.ar      1 <0>        -0.0875
     34 C26         7.4262   -4.4697  -13.5051 C.ar      1 <0>        -0.1126
     35 C27         7.1629   -5.3022  -12.4227 C.ar      1 <0>         0.0994
     36 N4          6.9331   -6.6552  -12.3026 N.pl3     1 <0>        -0.5904
     37 C28         6.7290   -6.9775  -10.9887 C.2       1 <0>         0.0703
     38 Cl1         7.7935   -0.8743  -11.7989 Cl        1 <0>        -0.0663
     39 H2          0.1385    1.9582   -3.7561 H         1 <0>         0.0592
     40 H3          1.9165    2.0395   -3.7725 H         1 <0>         0.0587
     41 H4          1.0061    2.1582   -5.2974 H         1 <0>         0.1081
     42 H5          1.2304   -2.3392   -4.3562 H         1 <0>         0.1449
     43 H6          1.2692   -2.5490   -0.0741 H         1 <0>         0.1454
     44 H7          1.0781    1.2419   -2.0330 H         1 <0>         0.1427
     45 H8          1.9397    1.8698   -0.2412 H         1 <0>         0.0585
     46 H9          0.1619    1.7813   -0.2294 H         1 <0>         0.0592
     47 H10         1.0606    1.8345    1.3061 H         1 <0>         0.1085
     48 H11         1.7838   -3.9610   -5.3913 H         1 <0>         0.1045
     49 H12         2.8579   -3.0442   -4.2902 H         1 <0>         0.1042
     50 H13         1.8064   -6.7127   -2.7848 H         1 <0>         0.0916
     51 H14         1.0835   -6.3934   -4.3919 H         1 <0>         0.0864
     52 H15         2.3584   -7.0576   -6.1815 H         1 <0>         0.1252
     53 H16         4.0926   -7.4267   -6.0175 H         1 <0>         0.0986
     54 H17         1.8357   -8.6742   -4.3824 H         1 <0>         0.1335
     55 H18         2.7306   -9.4693   -5.6992 H         1 <0>         0.1388
     56 H19         3.6373  -10.0649   -3.6039 H         1 <0>         0.4341
     57 H20         2.8890   -8.1523   -2.3514 H         1 <0>         0.1347
     58 H21         4.6053   -8.5407   -2.0849 H         1 <0>         0.1399
     59 H22         5.2579   -6.8497   -3.7710 H         1 <0>         0.0966
     60 H23         4.2764   -6.1076   -2.4838 H         1 <0>         0.1192
     61 H24         5.7814   -5.5364   -6.3646 H         1 <0>         0.3997
     62 H25         4.5190   -6.1838   -8.8067 H         1 <0>         0.0716
     63 H26         4.9559   -4.4587   -8.8412 H         1 <0>         0.0752
     64 H27         7.3101   -5.0446   -8.3281 H         1 <0>         0.0791
     65 H28         6.8732   -6.7698   -8.2935 H         1 <0>         0.0744
     66 H29         7.2369   -2.9592   -9.9496 H         1 <0>         0.1313
     67 H30         7.8209   -2.4778  -14.1479 H         1 <0>         0.1396
     68 H31         7.4813   -4.8808  -14.5023 H         1 <0>         0.1326
     69 H32         6.5318   -7.9725  -10.6178 H         1 <0>         0.1710
     70 H33         6.9213   -7.2860  -13.0395 H         1 <0>         0.4213
     71 H34         4.7324   -9.1374   -4.4102 H         1 <0>         0.4271
@<TRIPOS>BOND
     1    1    2 1
     2    1   39 1
     3    1   40 1
     4    1   41 1
     5    2    3 1
     6    3    8 ar
     7    3    4 ar
     8    4    5 ar
     9    4   42 1
    10    5    6 ar
    11    5   11 1
    12    6    7 ar
    13    6   43 1
    14    7    8 ar
    15    7    9 1
    16    8   44 1
    17    9   10 1
    18   10   45 1
    19   10   46 1
    20   10   47 1
    21   11   12 2
    22   11   13 am
    23   13   18 1
    24   13   14 1
    25   14   15 1
    26   14   48 1
    27   14   49 1
    28   15   16 1
    29   15   17 1
    30   15   24 1
    31   17   23 1
    32   17   18 1
    33   17   19 1
    34   18   50 1
    35   18   51 1
    36   19   20 1
    37   19   52 1
    38   19   53 1
    39   20   21 1
    40   20   54 1
    41   20   55 1
    42   21   22 1
    43   21   56 1
    44   21   71 1
    45   22   23 1
    46   22   57 1
    47   22   58 1
    48   23   59 1
    49   23   60 1
    50   24   25 2
    51   24   26 am
    52   26   27 1
    53   26   61 1
    54   27   28 1
    55   27   62 1
    56   27   63 1
    57   28   64 1
    58   28   65 1
    59   28   29 1
    60   29   30 1
    61   29   37 2
    62   30   31 ar
    63   30   35 ar
    64   31   32 ar
    65   31   66 1
    66   32   33 ar
    67   32   38 1
    68   33   34 ar
    69   33   67 1
    70   34   35 ar
    71   34   68 1
    72   35   36 1
    73   36   70 1
    74   36   37 1
    75   37   69 1
@<TRIPOS>MOLECULE
ZINC43737047
   77    81     0     0     0
SMALL
USER_CHARGES

@<TRIPOS>ATOM
      1 C1          0.4166    0.9346   -0.9641 C.3       1 <0>        -0.2068
      2 C2          0.0944   -0.0896    0.0935 C.2       1 <0>         0.3371
      3 O1          0.8995   -0.3381    0.9585 O.2       1 <0>        -0.4451
      4 C3         -1.2325   -0.8036    0.0714 C.3       1 <0>         0.0889
      5 C4         -1.6449   -1.1979    1.5020 C.3       1 <0>        -0.1490
      6 C5         -1.7152   -2.7421    1.5314 C.3       1 <0>        -0.1112
      7 C6         -0.8017   -3.1650    0.3656 C.3       1 <0>        -0.0752
      8 H1          0.2391   -3.0600    0.6720 H         1 <0>         0.0762
      9 C7         -1.1117   -2.1289   -0.7277 C.3       1 <0>        -0.0272
     10 C8         -2.4879   -2.3944   -1.3442 C.3       1 <0>        -0.0921
     11 C9         -2.5792   -3.8295   -1.8534 C.3       1 <0>        -0.1240
     12 C10        -2.4252   -4.7862   -0.6649 C.3       1 <0>        -0.0637
     13 H2         -3.1925   -4.5732    0.0795 H         1 <0>         0.0751
     14 C11        -1.0482   -4.5893   -0.0738 C.3       1 <0>        -0.0713
     15 H3         -0.3009   -4.8617   -0.8191 H         1 <0>         0.0764
     16 C12        -0.8940   -5.5333    1.1237 C.3       1 <0>        -0.1142
     17 C13        -0.9616   -6.9820    0.6370 C.3       1 <0>        -0.0936
     18 C14        -2.2577   -7.1769   -0.1289 C.2       1 <0>        -0.0319
     19 C15        -3.0130   -8.2215    0.1902 C.2       1 <0>        -0.1836
     20 C16        -4.2735   -8.4667   -0.5326 C.2       1 <0>         0.1861
     21 N1         -5.2219   -9.1888   -0.0254 N.2       1 <0>        -0.3472
     22 O2         -5.0627   -9.7671    1.2573 O.3       1 <0>        -0.2207
     23 C17        -6.1858  -10.5369    1.6912 C.3       1 <0>         0.0591
     24 C18        -5.9086  -11.1019    3.0605 C.2       1 <0>         0.5219
     25 O3         -4.8532  -10.8684    3.6106 O.2       1 <0>        -0.5112
     26 N2         -6.8334  -11.8668    3.6738 N.am      1 <0>        -0.7348
     27 C19        -6.5639  -12.4161    5.0049 C.3       1 <0>         0.1233
     28 C20        -7.7663  -13.2403    5.4695 C.3       1 <0>        -0.0756
     29 C21        -7.4891  -13.8053    6.8388 C.2       1 <0>         0.0325
     30 C22        -6.8207  -14.9438    7.1046 C.2       1 <0>         0.0422
     31 N3         -6.7978  -15.0809    8.4664 N.pl3     1 <0>        -0.5090
     32 H4         -6.3873  -15.8044    8.9652 H         1 <0>         0.4691
     33 C23        -7.4535  -14.0206    8.9856 C.cat     1 <0>         0.3107
     34 N4         -7.8598  -13.2595    8.0066 N.pl3     1 <0>        -0.4740
     35 C24        -4.4007   -7.8278   -1.9019 C.3       1 <0>        -0.0657
     36 C25        -4.0140   -6.3568   -1.7569 C.3       1 <0>        -0.1056
     37 C26        -2.5849   -6.2246   -1.1741 C.3       1 <0>        -0.0279
     38 C27        -1.6115   -6.4237   -2.3376 C.3       1 <0>        -0.1485
     39 C28        -0.0062   -2.0642   -1.7835 C.3       1 <0>        -0.1500
     40 O4         -2.2306    0.0341   -0.5152 O.3       1 <0>        -0.5371
     41 H5          1.4123    1.3405   -0.7853 H         1 <0>         0.0815
     42 H6          0.3872    0.4638   -1.9467 H         1 <0>         0.0981
     43 H7         -0.3166    1.7402   -0.9250 H         1 <0>         0.0939
     44 H8         -0.9011   -0.8443    2.2160 H         1 <0>         0.0796
     45 H9         -2.6212   -0.7751    1.7391 H         1 <0>         0.0778
     46 H10        -1.3331   -3.1259    2.4773 H         1 <0>         0.0696
     47 H11        -2.7365   -3.0832    1.3620 H         1 <0>         0.0718
     48 H12        -3.2574   -2.2311   -0.5896 H         1 <0>         0.0679
     49 H13        -2.6484   -1.7073   -2.1750 H         1 <0>         0.0713
     50 H14        -3.5480   -3.9882   -2.3270 H         1 <0>         0.0687
     51 H15        -1.7831   -4.0124   -2.5751 H         1 <0>         0.0713
     52 H16         0.0674   -5.3557    1.6056 H         1 <0>         0.0681
     53 H17        -1.6982   -5.3510    1.8366 H         1 <0>         0.0661
     54 H18        -0.1151   -7.1876   -0.0183 H         1 <0>         0.0811
     55 H19        -0.9373   -7.6569    1.4926 H         1 <0>         0.0734
     56 H20        -2.7034   -8.8912    0.9788 H         1 <0>         0.1275
     57 H21        -7.0689   -9.8993    1.7332 H         1 <0>         0.0889
     58 H22        -6.3598  -11.3529    0.9898 H         1 <0>         0.0897
     59 H23        -7.6775  -12.0535    3.2338 H         1 <0>         0.4076
     60 H24        -5.6808  -13.0536    4.9629 H         1 <0>         0.0798
     61 H25        -6.3899  -11.6001    5.7063 H         1 <0>         0.0726
     62 H26        -8.6494  -12.6027    5.5115 H         1 <0>         0.1053
     63 H27        -7.9403  -14.0563    4.7681 H         1 <0>         0.1215
     64 H28        -6.3865  -15.6191    6.3822 H         1 <0>         0.2284
     65 H29        -7.6119  -13.8318   10.0371 H         1 <0>         0.2679
     66 H30        -3.7283   -8.3202   -2.6044 H         1 <0>         0.0974
     67 H31        -5.4291   -7.9077   -2.2540 H         1 <0>         0.0898
     68 H32        -4.0682   -5.8773   -2.7343 H         1 <0>         0.0881
     69 H33        -4.7190   -5.8689   -1.0839 H         1 <0>         0.0683
     70 H34        -0.5916   -6.2578   -1.9905 H         1 <0>         0.0616
     71 H35        -1.7045   -7.4404   -2.7193 H         1 <0>         0.0568
     72 H36        -1.8448   -5.7146   -3.1319 H         1 <0>         0.0701
     73 H37         0.9499   -1.8714   -1.2970 H         1 <0>         0.0558
     74 H38         0.0425   -3.0133   -2.3172 H         1 <0>         0.0696
     75 H39        -0.2236   -1.2617   -2.4884 H         1 <0>         0.0669
     76 H40        -2.3618    0.8729   -0.0522 H         1 <0>         0.3776
     77 H41        -8.3536  -12.4307    8.1073 H         1 <0>         0.4657
@<TRIPOS>BOND
     1    1    2 1
     2    1   41 1
     3    1   42 1
     4    1   43 1
     5    2    3 2
     6    2    4 1
     7    4    9 1
     8    4    5 1
     9    4   40 1
    10    5    6 1
    11    5   44 1
    12    5   45 1
    13    6    7 1
    14    6   46 1
    15    6   47 1
    16    7    8 1
    17    7   14 1
    18    7    9 1
    19    9   10 1
    20    9   39 1
    21   10   11 1
    22   10   48 1
    23   10   49 1
    24   11   12 1
    25   11   50 1
    26   11   51 1
    27   12   13 1
    28   12   37 1
    29   12   14 1
    30   14   15 1
    31   14   16 1
    32   16   17 1
    33   16   52 1
    34   16   53 1
    35   17   18 1
    36   17   54 1
    37   17   55 1
    38   18   37 1
    39   18   19 2
    40   19   20 1
    41   19   56 1
    42   20   21 2
    43   20   35 1
    44   21   22 1
    45   22   23 1
    46   23   24 1
    47   23   57 1
    48   23   58 1
    49   24   25 2
    50   24   26 am
    51   26   27 1
    52   26   59 1
    53   27   28 1
    54   27   60 1
    55   27   61 1
    56   28   29 1
    57   28   62 1
    58   28   63 1
    59   29   34 1
    60   29   30 2
    61   30   31 1
    62   30   64 1
    63   31   32 1
    64   31   33 1
    65   33   34 2
    66   33   65 1
    67   34   77 1
    68   35   36 1
    69   35   66 1
    70   35   67 1
    71   36   37 1
    72   36   68 1
    73   36   69 1
    74   37   38 1
    75   38   70 1
    76   38   71 1
    77   38   72 1
    78   39   73 1
    79   39   74 1
    80   39   75 1
    81   40   76 1
@<TRIPOS>MOLECULE
ZINC64409699
   63    67     0     0     0
SMALL
USER_CHARGES

@<TRIPOS>ATOM
      1 C1         -0.0163    1.3482    0.0095 C.ar      1 <0>        -0.1493
      2 C2          1.1658    2.1014    0.0022 C.ar      1 <0>         0.0538
      3 C3          2.3912    1.5352   -0.0125 C.ar      1 <0>        -0.2087
      4 C4          2.5288    0.1198   -0.0218 C.ar      1 <0>         0.3304
      5 N1          3.5868   -0.6543   -0.0369 N.pl3     1 <0>        -0.5815
      6 C5          3.1432   -2.0528   -0.0408 C.3       1 <0>         0.0640
      7 C6          1.6315   -2.0084   -0.0255 C.2       1 <0>         0.0831
      8 C7          1.2951   -0.6984   -0.0144 C.ar      1 <0>        -0.1592
      9 C8          0.0021   -0.0041    0.0020 C.ar      1 <0>        -0.0125
     10 C9          0.6905   -3.1856   -0.0239 C.3       1 <0>        -0.1169
     11 C10         0.4600   -3.6463   -1.4401 C.2       1 <0>         0.5242
     12 O1          1.0061   -3.0751   -2.3601 O.2       1 <0>        -0.5315
     13 N2         -0.3529   -4.6932   -1.6843 N.am      1 <0>        -0.6034
     14 C11        -1.0297   -5.3962   -0.5838 C.3       1 <0>         0.1066
     15 C12        -0.7623   -6.8981   -0.7281 C.3       1 <0>         0.0245
     16 N3         -1.1511   -7.3342   -2.0759 N.3       1 <0>        -0.4945
     17 C13        -0.3368   -6.6742   -3.1052 C.3       1 <0>         0.0393
     18 C14        -0.5916   -5.1592   -3.0587 C.3       1 <0>         0.1183
     19 C15        -1.0724   -8.7958   -2.1995 C.3       1 <0>         0.3008
     20 H1         -1.2624   -9.1182   -3.2233 H         1 <0>         0.1405
     21 N4         -1.9831   -9.4792   -1.2301 N.3       1 <0>        -0.4850
     22 N5         -1.5608  -10.8340   -0.9420 N.3       1 <0>        -0.5137
     23 C16        -0.0967  -11.0669   -0.9647 C.3       1 <0>         0.1467
     24 H2          0.1593  -11.8684   -1.6577 H         1 <0>         0.1441
     25 S1          0.5409   -9.4450   -1.5710 S.3       1 <0>        -0.4112
     26 S2          0.5276  -11.4295    0.6994 S.3       1 <0>        -0.0577
     27 C17         0.0650   -9.9682    1.6697 C.3       1 <0>        -0.1359
     28 C18         0.5312  -10.1416    3.0922 C.2       1 <0>         0.5331
     29 O2          1.1177  -11.1515    3.4193 O.2       1 <0>        -0.5091
     30 N6          0.2963   -9.1744    4.0010 N.am      1 <0>        -0.7243
     31 C19         0.7495   -9.3430    5.3839 C.3       1 <0>         0.2041
     32 C20         0.3652   -8.1290    6.1899 C.2       1 <0>        -0.0445
     33 C21        -0.7844   -7.9676    6.8694 C.2       1 <0>        -0.1764
     34 C22        -0.7261   -6.6917    7.4758 C.2       1 <0>        -0.2144
     35 C23         0.4557   -6.1498    7.1305 C.2       1 <0>        -0.0295
     36 O3          1.1149   -7.0272    6.3564 O.3       1 <0>        -0.1739
     37 H3         -0.9665    1.8612    0.0259 H         1 <0>         0.1582
     38 H4          1.0933    3.1789    0.0083 H         1 <0>         0.1615
     39 H5          3.2717    2.1606   -0.0175 H         1 <0>         0.1613
     40 H6          3.4952   -2.5561   -0.9413 H         1 <0>         0.1762
     41 H7          3.5129   -2.5667    0.8465 H         1 <0>         0.1733
     42 H8         -0.9210   -0.5647    0.0081 H         1 <0>         0.1581
     43 H9          1.1268   -3.9987    0.5563 H         1 <0>         0.1387
     44 H10        -0.2596   -2.8905    0.4214 H         1 <0>         0.1385
     45 H11        -0.6383   -5.0446    0.3709 H         1 <0>         0.0947
     46 H12        -2.1023   -5.2087   -0.6343 H         1 <0>         0.0946
     47 H13         0.2986   -7.0951   -0.5740 H         1 <0>         0.0683
     48 H14        -1.3455   -7.4443    0.0133 H         1 <0>         0.0927
     49 H15         0.7181   -6.8743   -2.9180 H         1 <0>         0.0571
     50 H16        -0.6115   -7.0579   -4.0877 H         1 <0>         0.1034
     51 H17        -1.6229   -4.9494   -3.3426 H         1 <0>         0.0904
     52 H18         0.0896   -4.6509   -3.7412 H         1 <0>         0.1068
     53 H19        -2.0770   -8.9416   -0.3815 H         1 <0>         0.3672
     54 H20        -2.0415  -11.4960   -1.5327 H         1 <0>         0.3837
     55 H21         0.5334   -9.0831    1.2392 H         1 <0>         0.1144
     56 H22        -1.0184   -9.8499    1.6542 H         1 <0>         0.1156
     57 H23        -0.1728   -8.3667    3.7393 H         1 <0>         0.4026
     58 H24         0.2811  -10.2281    5.8144 H         1 <0>         0.1048
     59 H25         1.8329   -9.4613    5.3993 H         1 <0>         0.0891
     60 H26        -1.5964   -8.6763    6.9382 H         1 <0>         0.1533
     61 H27        -1.4849   -6.2389    8.0967 H         1 <0>         0.1532
     62 H28         0.8151   -5.1759    7.4285 H         1 <0>         0.2056
     63 H29         4.5087   -0.3528   -0.0446 H         1 <0>         0.4563
@<TRIPOS>BOND
     1    1    9 ar
     2    1    2 ar
     3    1   37 1
     4    2    3 ar
     5    2   38 1
     6    3    4 ar
     7    3   39 1
     8    4    8 ar
     9    4    5 2
    10    5    6 1
    11    5   63 1
    12    6    7 1
    13    6   40 1
    14    6   41 1
    15    7    8 2
    16    7   10 1
    17    8    9 ar
    18    9   42 1
    19   10   11 1
    20   10   43 1
    21   10   44 1
    22   11   12 2
    23   11   13 am
    24   13   18 1
    25   13   14 1
    26   14   15 1
    27   14   45 1
    28   14   46 1
    29   15   16 1
    30   15   47 1
    31   15   48 1
    32   16   17 1
    33   16   19 1
    34   17   18 1
    35   17   49 1
    36   17   50 1
    37   18   51 1
    38   18   52 1
    39   19   20 1
    40   19   25 1
    41   19   21 1
    42   21   22 1
    43   21   53 1
    44   22   23 1
    45   22   54 1
    46   23   24 1
    47   23   25 1
    48   23   26 1
    49   26   27 1
    50   27   28 1
    51   27   55 1
    52   27   56 1
    53   28   29 2
    54   28   30 am
    55   30   31 1
    56   30   57 1
    57   31   32 1
    58   31   58 1
    59   31   59 1
    60   32   36 1
    61   32   33 2
    62   33   34 1
    63   33   60 1
    64   34   35 2
    65   34   61 1
    66   35   36 1
    67   35   62 1
@<TRIPOS>MOLECULE
ZINC26747738
   23    23     0     0     0
SMALL
USER_CHARGES
1-[2-(1H-imidazol-2-yl)ethyl]guanidine
@<TRIPOS>ATOM
      1 C1         -1.1238    1.7630    0.0163 C.2       1 <0>        -0.0463
      2 C2         -0.6897    3.0378    0.0250 C.2       1 <0>        -0.0280
      3 N1          0.6514    3.0196    0.0121 N.2       1 <0>        -0.4839
      4 C3          1.0649    1.7819    0.0015 C.2       1 <0>         0.1941
      5 N2         -0.0111    0.9658    0.0074 N.pl3     1 <0>        -0.5747
      6 H1         -0.1188   -0.1289    0.0063 H         1 <0>         0.4514
      7 C4          2.5046    1.3369   -0.0139 C.3       1 <0>        -0.0369
      8 C5          3.2253    1.9826   -1.1991 C.3       1 <0>         0.1091
      9 N3          4.6250    1.5501   -1.2140 N.pl3     1 <0>        -0.7204
     10 C6          5.4744    2.0043   -2.1950 C.cat     1 <0>         0.7401
     11 N4          5.0345    2.8198   -3.1117 N.pl3     1 <0>        -0.8142
     12 N5          6.7879    1.5984   -2.2090 N.pl3     1 <0>        -0.8527
     13 H2         -2.1521    1.4330    0.0184 H         1 <0>         0.1827
     14 H3         -1.3123    3.9202    0.0351 H         1 <0>         0.1738
     15 H4          2.9929    1.6428    0.9231 H         1 <0>         0.1052
     16 H5          2.5490    0.2420   -0.1100 H         1 <0>         0.0937
     17 H6          2.7370    1.6766   -2.1361 H         1 <0>         0.0859
     18 H7          3.1808    3.0775   -1.1030 H         1 <0>         0.1006
     19 H8          4.9963    0.8620   -0.4403 H         1 <0>         0.4593
     20 H9          5.7141    3.1832   -3.8966 H         1 <0>         0.4682
     21 H10         7.4675    1.9618   -2.9939 H         1 <0>         0.4626
     22 H11         7.1592    0.9103   -1.4353 H         1 <0>         0.4621
     23 H12         3.9836    3.1446   -3.1004 H         1 <0>         0.4683
@<TRIPOS>BOND
     1    1    5 1
     2    1    2 2
     3    1   13 1
     4    2    3 1
     5    2   14 1
     6    3    4 2
     7    4    5 1
     8    4    7 1
     9    5    6 1
    10    7    8 1
    11    7   15 1
    12    7   16 1
    13    8    9 1
    14    8   17 1
    15    8   18 1
    16    9   10 1
    17    9   19 1
    18   10   11 2
    19   10   12 1
    20   11   20 1
    21   11   23 1
    22   12   21 1
    23   12   22 1
@<TRIPOS>MOLECULE
ZINC42040416
   19    19     0     0     0
SMALL
USER_CHARGES

@<TRIPOS>ATOM
      1 C1         -0.0187    1.5258    0.0104 C.3       1 <0>         0.0532
      2 C2          0.0021   -0.0041    0.0020 C.3       1 <0>         0.1353
      3 H1          0.6044   -0.3639    0.8362 H         1 <0>         0.1781
      4 C3         -1.4051   -0.5263    0.1365 C.2       1 <0>         0.2215
      5 N1         -2.0104   -0.8992    1.3118 N.am      1 <0>        -0.6376
      6 C4         -3.2635   -1.3103    1.0317 C.2       1 <0>         0.6563
      7 O1         -4.0871   -1.7118    1.8343 O.2       1 <0>        -0.5098
      8 N2         -3.4373   -1.1951   -0.3016 N.am      1 <0>        -0.5224
      9 N3         -2.2431   -0.6915   -0.8356 N.2       1 <0>        -0.2456
     10 N4          0.5820   -0.4790   -1.2614 N.4       1 <0>        -0.6258
     11 O2          1.3220    2.0204    0.0003 O.3       1 <0>        -0.5745
     12 H2         -0.5459    1.8868   -0.8726 H         1 <0>         0.0876
     13 H3         -0.5289    1.8773    0.9072 H         1 <0>         0.1025
     14 H4          0.0244   -0.1459   -2.0336 H         1 <0>         0.4434
     15 H5          1.5242   -0.1293   -1.3514 H         1 <0>         0.4543
     16 H6          1.3852    2.9853    0.0049 H         1 <0>         0.4195
     17 H7          0.5957   -1.4879   -1.2669 H         1 <0>         0.4429
     18 H8         -1.6055   -0.8716    2.1928 H         1 <0>         0.4507
     19 H9         -4.2407   -1.4165   -0.7979 H         1 <0>         0.4707
@<TRIPOS>BOND
     1    1    2 1
     2    1   11 1
     3    1   12 1
     4    1   13 1
     5    2    3 1
     6    2   10 1
     7    2    4 1
     8    4    5 1
     9    4    9 2
    10    5    6 am
    11    5   18 1
    12    6    7 2
    13    6    8 am
    14    8    9 1
    15    8   19 1
    16   10   14 1
    17   10   15 1
    18   10   17 1
    19   11   16 1
@<TRIPOS>MOLECULE
ZINC44253722
   40    40     0     0     0
SMALL
USER_CHARGES

@<TRIPOS>ATOM
      1 C1         -0.4517    1.5111    0.0644 C.3       1 <0>        -0.1015
      2 C2         -0.2183    0.0227    0.0319 C.2       1 <0>         0.0775
      3 C3          0.0863   -0.7351   -1.1036 C.2       1 <0>        -0.3241
      4 C4          0.2208   -2.0255   -0.7193 C.2       1 <0>         0.1530
      5 N1          0.0087   -2.0824    0.6122 N.pl3     1 <0>        -0.3358
      6 N2         -0.2599   -0.7831    1.0618 N.2       1 <0>        -0.2607
      7 C5          0.0564   -3.2889    1.4418 C.3       1 <0>         0.1742
      8 C6          1.3918   -4.0038    1.2260 C.3       1 <0>        -0.1711
      9 C7         -0.0819   -2.9005    2.9152 C.3       1 <0>        -0.1477
     10 C8         -1.0909   -4.2225    1.0506 C.3       1 <0>        -0.1675
     11 C9          0.5481   -3.1906   -1.6174 C.3       1 <0>        -0.1227
     12 C10         0.2373   -0.2077   -2.5072 C.3       1 <0>         0.1493
     13 H1          0.7278   -0.9585   -3.1267 H         1 <0>         0.1501
     14 C11        -1.1439    0.1072   -3.0851 C.3       1 <0>        -0.1697
     15 C12        -1.0031    0.5176   -4.5282 C.2       1 <0>         0.5121
     16 O1          0.0940    0.5546   -5.0439 O.2       1 <0>        -0.5580
     17 N3         -2.0963    0.8435   -5.2459 N.am      1 <0>        -0.8340
     18 N4          1.0497    1.0161   -2.4858 N.4       1 <0>        -0.6372
     19 H2          0.4952    2.0238    0.2336 H         1 <0>         0.0880
     20 H3         -0.8745    1.8335   -0.8872 H         1 <0>         0.0716
     21 H4         -1.1448    1.7526    0.8703 H         1 <0>         0.1009
     22 H5          2.2092   -3.3386    1.5047 H         1 <0>         0.0687
     23 H6          1.4273   -4.9014    1.8432 H         1 <0>         0.0911
     24 H7          1.4904   -4.2804    0.1763 H         1 <0>         0.0718
     25 H8         -1.0333   -2.3912    3.0689 H         1 <0>         0.0725
     26 H9         -0.0464   -3.7982    3.5324 H         1 <0>         0.0821
     27 H10         0.7355   -2.2354    3.1939 H         1 <0>         0.0693
     28 H11        -0.9328   -4.5869    0.0355 H         1 <0>         0.0686
     29 H12        -1.1229   -5.0670    1.7390 H         1 <0>         0.0904
     30 H13        -2.0343   -3.6787    1.0986 H         1 <0>         0.0690
     31 H14         1.6288   -3.2624   -1.7400 H         1 <0>         0.0965
     32 H15         0.1712   -4.1107   -1.1708 H         1 <0>         0.0919
     33 H16         0.0811   -3.0413   -2.5909 H         1 <0>         0.0916
     34 H17        -1.7759   -0.7785   -3.0192 H         1 <0>         0.1425
     35 H18        -1.5979    0.9204   -2.5187 H         1 <0>         0.1206
     36 H19        -2.9738    0.8139   -4.8336 H         1 <0>         0.4121
     37 H20        -2.0057    1.1077   -6.1749 H         1 <0>         0.4161
     38 H21         0.5957    1.7111   -1.9123 H         1 <0>         0.4222
     39 H22         1.9606    0.8084   -2.1047 H         1 <0>         0.4371
     40 H23         1.1508    1.3692   -3.4255 H         1 <0>         0.4395
@<TRIPOS>BOND
     1    1    2 1
     2    1   19 1
     3    1   20 1
     4    1   21 1
     5    2    6 2
     6    2    3 1
     7    3    4 2
     8    3   12 1
     9    4    5 1
    10    4   11 1
    11    5    6 1
    12    5    7 1
    13    7    8 1
    14    7    9 1
    15    7   10 1
    16    8   22 1
    17    8   23 1
    18    8   24 1
    19    9   25 1
    20    9   26 1
    21    9   27 1
    22   10   28 1
    23   10   29 1
    24   10   30 1
    25   11   31 1
    26   11   32 1
    27   11   33 1
    28   12   13 1
    29   12   14 1
    30   12   18 1
    31   14   15 1
    32   14   34 1
    33   14   35 1
    34   15   16 2
    35   15   17 am
    36   17   36 1
    37   17   37 1
    38   18   38 1
    39   18   39 1
    40   18   40 1
@<TRIPOS>MOLECULE
ZINC50104024
   33    34     0     0     0
SMALL
USER_CHARGES

@<TRIPOS>ATOM
      1 C1          0.4104    1.4955   -0.5923 C.3       1 <0>        -0.1505
      2 C2          1.6514    0.6238   -0.7950 C.3       1 <0>        -0.1344
      3 C3          0.3079   -0.0249   -0.4556 C.3       1 <0>        -0.0497
      4 N1         -0.3814   -0.7572   -1.5264 N.4       1 <0>        -0.3538
      5 C4         -0.2325   -2.2020   -1.3059 C.3       1 <0>         0.0004
      6 C5          1.2422   -2.5884   -1.4358 C.3       1 <0>         0.0524
      7 O1          1.9913   -1.9671   -0.3894 O.3       1 <0>        -0.5685
      8 C6         -1.8077   -0.4055   -1.5205 C.3       1 <0>         0.0773
      9 C7         -1.9700    1.0405   -1.9129 C.ar      1 <0>         0.3851
     10 N2         -2.0994    1.9662   -0.9788 N.ar      1 <0>        -0.6118
     11 C8         -2.2426    3.2445   -1.3215 C.ar      1 <0>         0.6401
     12 N3         -2.2553    3.5890   -2.6045 N.ar      1 <0>        -0.6367
     13 C9         -2.1250    2.6555   -3.5407 C.ar      1 <0>         0.6423
     14 N4         -1.9772    1.3799   -3.1901 N.ar      1 <0>        -0.6313
     15 N5         -2.1375    3.0083   -4.8747 N.pl3     1 <0>        -0.7923
     16 N6         -2.3781    4.2104   -0.3454 N.pl3     1 <0>        -0.7916
     17 H1          0.3552    2.0878    0.3210 H         1 <0>         0.1289
     18 H2         -0.0336    1.9524   -1.4767 H         1 <0>         0.0939
     19 H3          2.0237    0.5072   -1.8128 H         1 <0>         0.1068
     20 H4          2.4125    0.6426   -0.0150 H         1 <0>         0.1303
     21 H5          0.1852   -0.4329    0.5477 H         1 <0>         0.1779
     22 H6         -0.5880   -2.4557   -0.3073 H         1 <0>         0.1405
     23 H7         -0.8172   -2.7450   -2.0485 H         1 <0>         0.1458
     24 H8          1.3420   -3.6712   -1.3606 H         1 <0>         0.0952
     25 H9          1.6215   -2.2547   -2.4016 H         1 <0>         0.0670
     26 H10         2.9368   -2.1685   -0.4096 H         1 <0>         0.4009
     27 H11        -2.3406   -1.0369   -2.2315 H         1 <0>         0.1565
     28 H12        -2.2157   -0.5588   -0.5215 H         1 <0>         0.1583
     29 H13        -2.2416    3.9385   -5.1294 H         1 <0>         0.4260
     30 H14        -2.0423    2.3261   -5.5577 H         1 <0>         0.4238
     31 H15        -2.3690    3.9581    0.5912 H         1 <0>         0.4243
     32 H16        -2.4824    5.1417   -0.5958 H         1 <0>         0.4257
     33 H17         0.0224   -0.5096   -2.4172 H         1 <0>         0.4211
@<TRIPOS>BOND
     1    1    3 1
     2    1    2 1
     3    1   17 1
     4    1   18 1
     5    2    3 1
     6    2   19 1
     7    2   20 1
     8    3    4 1
     9    3   21 1
    10    4    5 1
    11    4    8 1
    12    4   33 1
    13    5    6 1
    14    5   22 1
    15    5   23 1
    16    6    7 1
    17    6   24 1
    18    6   25 1
    19    7   26 1
    20    8    9 1
    21    8   27 1
    22    8   28 1
    23    9   14 ar
    24    9   10 ar
    25   10   11 ar
    26   11   12 ar
    27   11   16 1
    28   12   13 ar
    29   13   14 ar
    30   13   15 1
    31   15   29 1
    32   15   30 1
    33   16   31 1
    34   16   32 1
@<TRIPOS>MOLECULE
ZINC62100211
   33    33     0     0     0
SMALL
USER_CHARGES

@<TRIPOS>ATOM
      1 C1         -0.0184    1.5077    0.0103 C.3       1 <0>        -0.1554
      2 C2          1.4276    2.0169   -0.0007 C.3       1 <0>         0.1117
      3 N1          1.9540    1.9627   -1.3632 N.am      1 <0>        -0.5834
      4 C3          2.1229    0.7074   -2.0907 C.3       1 <0>         0.0616
      5 C4          0.7563    0.0521   -2.3155 C.3       1 <0>         0.0891
      6 N2          0.3706   -0.6703   -1.0957 N.am      1 <0>        -0.7282
      7 C5          0.0021   -0.0041    0.0020 C.2       1 <0>         0.5114
      8 O1         -0.3181   -0.6161    0.9989 O.2       1 <0>        -0.5234
      9 C6          2.2965    3.1154   -1.9718 C.2       1 <0>         0.4993
     10 O2          2.1654    4.1710   -1.3891 O.2       1 <0>        -0.5112
     11 C7          2.8422    3.0927   -3.3763 C.3       1 <0>         0.0229
     12 H1          3.5207    2.2470   -3.4889 H         1 <0>         0.1749
     13 C8          1.6871    2.9557   -4.3701 C.3       1 <0>        -0.1749
     14 C9          2.2390    2.8096   -5.7648 C.2       1 <0>         0.5166
     15 O3          3.4382    2.8146   -5.9460 O.2       1 <0>        -0.5528
     16 N3          1.4000    2.6733   -6.8107 N.am      1 <0>        -0.8281
     17 N4          3.5690    4.3419   -3.6395 N.4       1 <0>        -0.6189
     18 H2         -0.5242    1.8618    0.9086 H         1 <0>         0.1222
     19 H3         -0.5412    1.8714   -0.8743 H         1 <0>         0.0968
     20 H4          1.4530    3.0460    0.3577 H         1 <0>         0.1206
     21 H5          2.0382    1.3907    0.6498 H         1 <0>         0.0931
     22 H6          2.5921    0.9070   -3.0541 H         1 <0>         0.1002
     23 H7          2.7565    0.0353   -1.5120 H         1 <0>         0.1040
     24 H8          0.0146    0.8202   -2.5350 H         1 <0>         0.0840
     25 H9          0.8190   -0.6468   -3.1495 H         1 <0>         0.1117
     26 H10         0.3832   -1.6402   -1.0875 H         1 <0>         0.4103
     27 H11         1.0948    2.0755   -4.1197 H         1 <0>         0.1458
     28 H12         1.0572    3.8438   -4.3199 H         1 <0>         0.1359
     29 H13         0.4409    2.6693   -6.6658 H         1 <0>         0.4138
     30 H14         1.7552    2.5793   -7.7084 H         1 <0>         0.4204
     31 H15         4.3308    4.4323   -2.9840 H         1 <0>         0.4431
     32 H16         3.9344    4.3267   -4.5799 H         1 <0>         0.4479
     33 H17         2.9410    5.1248   -3.5353 H         1 <0>         0.4387
@<TRIPOS>BOND
     1    1    7 1
     2    1    2 1
     3    1   18 1
     4    1   19 1
     5    2    3 1
     6    2   20 1
     7    2   21 1
     8    3    4 1
     9    3    9 am
    10    4    5 1
    11    4   22 1
    12    4   23 1
    13    5    6 1
    14    5   24 1
    15    5   25 1
    16    6    7 am
    17    6   26 1
    18    7    8 2
    19    9   10 2
    20    9   11 1
    21   11   12 1
    22   11   13 1
    23   11   17 1
    24   13   14 1
    25   13   27 1
    26   13   28 1
    27   14   15 2
    28   14   16 am
    29   16   29 1
    30   16   30 1
    31   17   31 1
    32   17   32 1
    33   17   33 1
@<TRIPOS>MOLECULE
ZINC19865112
   22    22     0     0     0
SMALL
USER_CHARGES

@<TRIPOS>ATOM
      1 C1         -0.0156    1.3017    0.0092 C.2       1 <0>         0.2166
      2 N1          1.2380    1.7560   -0.0003 N.2       1 <0>        -0.5441
      3 C2          2.0773    0.7418   -0.0138 C.2       1 <0>         0.2440
      4 N2          1.3502   -0.3966   -0.0130 N.pl3     1 <0>        -0.4553
      5 H1          1.6915   -1.3045   -0.0214 H         1 <0>         0.4489
      6 N3          0.0021   -0.0041    0.0020 N.2       1 <0>        -0.2928
      7 S1          3.8358    0.8502   -0.0309 S.3       1 <0>         0.0490
      8 C3          4.1657    2.6339   -0.0246 C.3       1 <0>        -0.1529
      9 C4          5.6768    2.8732   -0.0385 C.3       1 <0>         0.0978
     10 H2          6.1363    2.3433    0.7959 H         1 <0>         0.1367
     11 C5          5.9572    4.3716    0.0926 C.3       1 <0>        -0.0375
     12 N4          7.4080    4.6013    0.0792 N.4       1 <0>        -0.6321
     13 O1          6.2240    2.3919   -1.2677 O.3       1 <0>        -0.5461
     14 H3         -0.9040    1.9157    0.0250 H         1 <0>         0.2272
     15 H4          3.7176    3.0894   -0.9076 H         1 <0>         0.1134
     16 H5          3.7355    3.0798    0.8722 H         1 <0>         0.1194
     17 H6          5.4977    4.9015   -0.7418 H         1 <0>         0.1431
     18 H7          5.5398    4.7387    1.0302 H         1 <0>         0.1500
     19 H8          7.8333    4.1108    0.8516 H         1 <0>         0.4380
     20 H9          7.7944    4.2615   -0.7887 H         1 <0>         0.4399
     21 H10         5.8601    2.8202   -2.0546 H         1 <0>         0.3951
     22 H11         7.5929    5.5894    0.1656 H         1 <0>         0.4418
@<TRIPOS>BOND
     1    1    6 2
     2    1    2 1
     3    1   14 1
     4    2    3 2
     5    3    4 1
     6    3    7 1
     7    4    5 1
     8    4    6 1
     9    7    8 1
    10    8    9 1
    11    8   15 1
    12    8   16 1
    13    9   10 1
    14    9   11 1
    15    9   13 1
    16   11   12 1
    17   11   17 1
    18   11   18 1
    19   12   19 1
    20   12   20 1
    21   12   22 1
    22   13   21 1
@<TRIPOS>MOLECULE
ZINC36853677
   25    25     0     0     0
SMALL
USER_CHARGES

@<TRIPOS>ATOM
      1 C1         -0.0187    1.5258    0.0104 C.3       1 <0>        -0.1797
      2 C2          0.0021   -0.0041    0.0020 C.3       1 <0>        -0.0125
      3 H1          0.5293   -0.3651    0.8851 H         1 <0>         0.1804
      4 C3          0.7074   -0.4901   -1.2379 C.2       1 <0>         0.5156
      5 O1          0.1200   -1.1910   -2.0344 O.2       1 <0>        -0.5284
      6 N1          1.9912   -0.1458   -1.4616 N.am      1 <0>        -0.8197
      7 N2         -1.3761   -0.5125    0.0124 N.4       1 <0>        -0.4788
      8 C4         -2.0260   -0.1396    1.2760 C.3       1 <0>        -0.0147
      9 H2         -1.9591    0.9362    1.4375 H         1 <0>         0.1968
     10 C5         -3.4982   -0.5993    1.2854 C.3       1 <0>        -0.1706
     11 C6         -3.5605   -1.5658    2.4480 C.2       1 <0>         0.5254
     12 O2         -4.5498   -2.1654    2.8104 O.2       1 <0>        -0.4253
     13 N3         -2.3498   -1.6542    3.0126 N.am      1 <0>        -0.6672
     14 C7         -1.4085   -0.8916    2.4347 C.2       1 <0>         0.5229
     15 O3         -0.2496   -0.8170    2.7825 O.2       1 <0>        -0.4333
     16 H3          1.0039    1.9031    0.0027 H         1 <0>         0.1173
     17 H4         -0.5459    1.8868   -0.8726 H         1 <0>         0.0952
     18 H5         -0.5289    1.8773    0.9072 H         1 <0>         0.0972
     19 H6          2.4610    0.4148   -0.8245 H         1 <0>         0.4145
     20 H7          2.4452   -0.4586   -2.2596 H         1 <0>         0.4265
     21 H8         -4.1634    0.2474    1.4544 H         1 <0>         0.1663
     22 H9         -3.7483   -1.1047    0.3526 H         1 <0>         0.1479
     23 H10        -1.8879   -0.1129   -0.7598 H         1 <0>         0.4454
     24 H11        -2.1677   -2.2218    3.7778 H         1 <0>         0.4397
     25 H12        -1.3644   -1.5176   -0.0760 H         1 <0>         0.4391
@<TRIPOS>BOND
     1    1    2 1
     2    1   16 1
     3    1   17 1
     4    1   18 1
     5    2    3 1
     6    2    4 1
     7    2    7 1
     8    4    5 2
     9    4    6 am
    10    6   19 1
    11    6   20 1
    12    7    8 1
    13    7   23 1
    14    7   25 1
    15    8    9 1
    16    8   14 1
    17    8   10 1
    18   10   11 1
    19   10   21 1
    20   10   22 1
    21   11   12 2
    22   11   13 am
    23   13   14 am
    24   13   24 1
    25   14   15 2
@<TRIPOS>MOLECULE
ZINC44252850
   23    22     0     0     0
SMALL
USER_CHARGES

@<TRIPOS>ATOM
      1 C1         -0.0187    1.5258    0.0104 C.3       1 <0>        -0.1679
      2 C2          0.0021   -0.0041    0.0020 C.3       1 <0>         0.0168
      3 H1          0.5883   -0.3548   -0.8473 H         1 <0>         0.1644
      4 C3         -1.4290   -0.5329   -0.1129 C.3       1 <0>         0.0875
      5 H2         -1.8464   -0.2449   -1.0777 H         1 <0>         0.1554
      6 C4         -1.4199   -2.0584    0.0039 C.3       1 <0>         0.0301
      7 O1         -2.7388   -2.5611   -0.2193 O.3       1 <0>        -0.5487
      8 O2         -2.2269    0.0204    0.9356 O.3       1 <0>        -0.5252
      9 N1          0.6059   -0.4925    1.2489 N.4       1 <0>        -0.6392
     10 C5          1.3951    2.0474   -0.0003 C.2       1 <0>         0.5125
     11 O3          2.3275    1.2719   -0.0133 O.2       1 <0>        -0.5608
     12 N2          1.6234    3.3757    0.0047 N.am      1 <0>        -0.8311
     13 H3         -0.5459    1.8868   -0.8726 H         1 <0>         0.1490
     14 H4         -0.5289    1.8773    0.9072 H         1 <0>         0.1298
     15 H5         -0.7413   -2.4757   -0.7400 H         1 <0>         0.0740
     16 H6         -1.0860   -2.3444    1.0013 H         1 <0>         0.0450
     17 H7         -2.8080   -3.5238   -0.1604 H         1 <0>         0.3986
     18 H8         -1.9133   -0.1959    1.8244 H         1 <0>         0.3698
     19 H9          0.6196   -1.5013    1.2434 H         1 <0>         0.4354
     20 H10         1.5497   -0.1437    1.3247 H         1 <0>         0.4468
     21 H11         0.8777    3.9959    0.0151 H         1 <0>         0.4138
     22 H12         2.5334    3.7114   -0.0022 H         1 <0>         0.4176
     23 H13         0.0633   -0.1678    2.0352 H         1 <0>         0.4264
@<TRIPOS>BOND
     1    1    2 1
     2    1   10 1
     3    1   13 1
     4    1   14 1
     5    2    3 1
     6    2    4 1
     7    2    9 1
     8    4    5 1
     9    4    6 1
    10    4    8 1
    11    6    7 1
    12    6   15 1
    13    6   16 1
    14    7   17 1
    15    8   18 1
    16    9   19 1
    17    9   20 1
    18    9   23 1
    19   10   11 2
    20   10   12 am
    21   12   21 1
    22   12   22 1
@<TRIPOS>MOLECULE
ZINC45435673
   21    21     0     0     0
SMALL
USER_CHARGES

@<TRIPOS>ATOM
      1 C1         -0.0157    1.3029    0.0092 C.2       1 <0>         0.2594
      2 N1          1.2385    1.7527   -0.0004 N.2       1 <0>        -0.5260
      3 C2          2.0716    0.7439   -0.0137 C.2       1 <0>         0.2954
      4 N2          1.3519   -0.3915   -0.0130 N.pl3     1 <0>        -0.4189
      5 N3          0.0021   -0.0041    0.0020 N.2       1 <0>        -0.3791
      6 C3          1.8723   -1.7609   -0.0253 C.3       1 <0>         0.1193
      7 C4          1.2914   -2.5379    1.1578 C.3       1 <0>        -0.0015
      8 H1          1.5014   -2.0015    2.0831 H         1 <0>         0.1707
      9 C5          1.9194   -3.9065    1.2170 C.2       1 <0>         0.5125
     10 O1          1.3232   -4.8668    0.7773 O.2       1 <0>        -0.5106
     11 N4          3.1436   -4.0634    1.7585 N.am      1 <0>        -0.8198
     12 N5         -0.1616   -2.6728    0.9890 N.4       1 <0>        -0.6197
     13 H2         -0.9029    1.9184    0.0250 H         1 <0>         0.2321
     14 H3          3.1494    0.8117   -0.0240 H         1 <0>         0.2329
     15 H4          1.5865   -2.2498   -0.9566 H         1 <0>         0.1255
     16 H5          2.9592   -1.7373    0.0540 H         1 <0>         0.1530
     17 H6          3.6204   -3.2953    2.1101 H         1 <0>         0.4146
     18 H7          3.5478   -4.9443    1.7965 H         1 <0>         0.4292
     19 H8         -0.3560   -3.1694    0.1324 H         1 <0>         0.4424
     20 H9         -0.5448   -3.1852    1.7692 H         1 <0>         0.4413
     21 H10        -0.5821   -1.7564    0.9493 H         1 <0>         0.4473
@<TRIPOS>BOND
     1    1    5 2
     2    1    2 1
     3    1   13 1
     4    2    3 2
     5    3    4 1
     6    3   14 1
     7    4    5 1
     8    4    6 1
     9    6    7 1
    10    6   15 1
    11    6   16 1
    12    7    8 1
    13    7    9 1
    14    7   12 1
    15    9   10 2
    16    9   11 am
    17   11   17 1
    18   11   18 1
    19   12   19 1
    20   12   20 1
    21   12   21 1
@<TRIPOS>MOLECULE
ZINC62813050
   34    34     0     0     0
SMALL
USER_CHARGES

@<TRIPOS>ATOM
      1 C1         -0.0187    1.5258    0.0104 C.3       1 <0>        -0.1637
      2 C2          0.0021   -0.0041    0.0020 C.3       1 <0>         0.1246
      3 H1         -1.0205   -0.3814    0.0098 H         1 <0>         0.1216
      4 C3          0.7074   -0.4901   -1.2379 C.2       1 <0>         0.5108
      5 O1          1.7039   -1.1744   -1.1398 O.2       1 <0>        -0.5399
      6 N1          0.2309   -0.1642   -2.4557 N.am      1 <0>        -0.7229
      7 C4          0.9167   -0.6367   -3.6611 C.3       1 <0>         0.0830
      8 N2          0.7106   -0.4894    1.1889 N.am      1 <0>        -0.7074
      9 C5          0.0512   -0.6335    2.3554 C.2       1 <0>         0.5174
     10 O2         -1.1288   -0.3614    2.4226 O.2       1 <0>        -0.4913
     11 C6          0.7801   -1.1327    3.5763 C.3       1 <0>         0.0487
     12 H2          1.7731   -0.6849    3.6155 H         1 <0>         0.0883
     13 C7          0.9092   -2.6559    3.5067 C.3       1 <0>         0.0022
     14 N3          1.6019   -3.1441    4.7064 N.4       1 <0>        -0.5041
     15 C8          0.8252   -2.7882    5.9012 C.3       1 <0>        -0.0078
     16 C9          0.6954   -1.2661    5.9908 C.3       1 <0>         0.0304
     17 N4          0.0270   -0.7619    4.7828 N.3       1 <0>        -0.6665
     18 H3          1.0039    1.9031    0.0027 H         1 <0>         0.0678
     19 H4         -0.5459    1.8868   -0.8726 H         1 <0>         0.0795
     20 H5         -0.5289    1.8773    0.9072 H         1 <0>         0.0775
     21 H6         -0.5660    0.3831   -2.5342 H         1 <0>         0.4079
     22 H7          0.9314   -1.7265   -3.6671 H         1 <0>         0.0647
     23 H8          0.3895   -0.2756   -4.5441 H         1 <0>         0.0840
     24 H9          1.9393   -0.2594   -3.6688 H         1 <0>         0.0655
     25 H10         1.6544   -0.7070    1.1351 H         1 <0>         0.4108
     26 H11        -0.0837   -3.1026    3.4533 H         1 <0>         0.1480
     27 H12         1.4799   -2.9320    2.6200 H         1 <0>         0.1445
     28 H13         1.6978   -4.1472    4.6543 H         1 <0>         0.4387
     29 H14        -0.1672   -3.2343    5.8356 H         1 <0>         0.1424
     30 H15         1.3336   -3.1624    6.7898 H         1 <0>         0.1431
     31 H16         0.1064   -1.0024    6.8693 H         1 <0>         0.1314
     32 H17         1.6870   -0.8206    6.0702 H         1 <0>         0.0624
     33 H18        -0.1062    0.2370    4.8331 H         1 <0>         0.3809
     34 H19         2.5164   -2.7216    4.7618 H         1 <0>         0.4275
@<TRIPOS>BOND
     1    1    2 1
     2    1   18 1
     3    1   19 1
     4    1   20 1
     5    2    3 1
     6    2    4 1
     7    2    8 1
     8    4    5 2
     9    4    6 am
    10    6    7 1
    11    6   21 1
    12    7   22 1
    13    7   23 1
    14    7   24 1
    15    8    9 am
    16    8   25 1
    17    9   10 2
    18    9   11 1
    19   11   12 1
    20   11   17 1
    21   11   13 1
    22   13   14 1
    23   13   26 1
    24   13   27 1
    25   14   15 1
    26   14   28 1
    27   14   34 1
    28   15   16 1
    29   15   29 1
    30   15   30 1
    31   16   17 1
    32   16   31 1
    33   16   32 1
    34   17   33 1
@<TRIPOS>MOLECULE
ZINC28295472
   64    66     0     0     0
SMALL
USER_CHARGES
(2S)-1-[(3S,5R)-3,5-dimethyl-1-piperidyl]-4-[(1S,2R,4S)-1,7,7-trimethylnorbornan-2-yl]oxy-butan-2-ol
@<TRIPOS>ATOM
      1 C1          0.4095    2.0803    2.4209 C.3       1 <0>        -0.1536
      2 C2         -0.4258    2.3378    1.1652 C.3       1 <0>        -0.1096
      3 H1         -0.4419    3.4170    0.9531 H         1 <0>         0.0946
      4 C3         -1.8548    1.8368    1.3907 C.3       1 <0>        -0.1320
      5 C4         -2.6677    2.0434    0.1097 C.3       1 <0>        -0.1078
      6 H2         -2.7255    3.1173   -0.1216 H         1 <0>         0.0947
      7 C5         -1.9868    1.3057   -1.0453 C.3       1 <0>        -0.0077
      8 N1         -0.6232    1.8215   -1.2211 N.4       1 <0>        -0.3945
      9 C6          0.1903    1.5916   -0.0203 C.3       1 <0>        -0.0035
     10 C7          0.0128    1.2346   -2.4081 C.3       1 <0>         0.0055
     11 C8         -0.9061    1.4109   -3.6187 C.3       1 <0>         0.0974
     12 H3         -1.8886    0.9480   -3.4444 H         1 <0>         0.0777
     13 C9         -0.2304    0.8273   -4.8612 C.3       1 <0>        -0.1514
     14 C10        -1.1976    0.8906   -6.0449 C.3       1 <0>         0.0614
     15 O1         -0.5665    0.3454   -7.2054 O.3       1 <0>        -0.3806
     16 C11        -1.3890    0.3571   -8.3739 C.3       1 <0>         0.0970
     17 H4         -2.0201    1.2436   -8.2127 H         1 <0>         0.0589
     18 C12        -2.1771   -0.9676   -8.4914 C.3       1 <0>        -0.1405
     19 C13        -1.6971   -1.5938   -9.8363 C.3       1 <0>        -0.0921
     20 H5         -2.3497   -2.3800  -10.2436 H         1 <0>         0.1011
     21 C14        -0.2268   -2.0330   -9.5597 C.3       1 <0>        -0.1233
     22 C15         0.5612   -0.7084   -9.4422 C.3       1 <0>        -0.1083
     23 C16        -0.5072    0.4065   -9.6589 C.3       1 <0>        -0.0511
     24 C17        -1.4573   -0.2988  -10.6900 C.3       1 <0>        -0.0594
     25 C18        -0.7458   -0.6049  -12.0095 C.3       1 <0>        -0.1412
     26 C19        -2.7495    0.4897  -10.9120 C.3       1 <0>        -0.1420
     27 C20         0.0331    1.7844  -10.0467 C.3       1 <0>        -0.1252
     28 O2         -1.1613    2.8018   -3.8244 O.3       1 <0>        -0.6101
     29 C21        -4.0810    1.4912    0.3060 C.3       1 <0>        -0.1533
     30 H6         -0.0339    2.6169    3.2726 H         1 <0>         0.0780
     31 H7          1.4370    2.4373    2.2573 H         1 <0>         0.0690
     32 H8          0.4259    1.0016    2.6355 H         1 <0>         0.0670
     33 H9         -1.8323    0.7670    1.6456 H         1 <0>         0.0818
     34 H10        -2.3152    2.4006    2.2154 H         1 <0>         0.0946
     35 H11        -1.9451    0.2299   -0.8194 H         1 <0>         0.1237
     36 H12        -2.5604    1.4641   -1.9705 H         1 <0>         0.1309
     37 H13         1.2122    1.9597   -0.1942 H         1 <0>         0.1307
     38 H14         0.2212    0.5144    0.2004 H         1 <0>         0.1253
     39 H15         0.9710    1.7401   -2.5984 H         1 <0>         0.1392
     40 H16         0.1914    0.1629   -2.2363 H         1 <0>         0.1387
     41 H17         0.6733    1.4093   -5.0946 H         1 <0>         0.0927
     42 H18         0.0471   -0.2198   -4.6700 H         1 <0>         0.0893
     43 H19        -2.1014    0.3086   -5.8114 H         1 <0>         0.0484
     44 H20        -1.4750    1.9377   -6.2362 H         1 <0>         0.0481
     45 H21        -1.9403   -1.6125   -7.6324 H         1 <0>         0.0722
     46 H22        -3.2559   -0.7528   -8.5022 H         1 <0>         0.0673
     47 H23        -0.1875   -2.6163   -8.6279 H         1 <0>         0.0613
     48 H24         0.1345   -2.6512  -10.3948 H         1 <0>         0.0652
     49 H25         1.0234   -0.6439   -8.4461 H         1 <0>         0.0736
     50 H26         1.3455   -0.6787  -10.2129 H         1 <0>         0.0647
     51 H27        -0.5995    0.3288  -12.5724 H         1 <0>         0.0577
     52 H28        -1.3581   -1.2992  -12.6037 H         1 <0>         0.0590
     53 H29         0.2317   -1.0644  -11.8010 H         1 <0>         0.0634
     54 H30        -2.5338    1.3855  -11.5129 H         1 <0>         0.0590
     55 H31        -3.1663    0.7918   -9.9399 H         1 <0>         0.0541
     56 H32        -3.4775   -0.1414  -11.4429 H         1 <0>         0.0600
     57 H33         0.6367    1.6972  -10.9622 H         1 <0>         0.0654
     58 H34         0.6587    2.1758   -9.2309 H         1 <0>         0.0596
     59 H35        -0.8076    2.4708  -10.2258 H         1 <0>         0.0586
     60 H36        -1.8062    3.1258   -4.6545 H         1 <0>         0.4386
     61 H37        -4.6640    1.6402   -0.6148 H         1 <0>         0.0677
     62 H38        -4.5688    2.0196    1.1384 H         1 <0>         0.0781
     63 H39        -4.0263    0.4168    0.5356 H         1 <0>         0.0666
     64 H40        -0.6933    2.9083   -1.3757 H         1 <0>         0.4492
@<TRIPOS>BOND
     1    1    2 1
     2    1   30 1
     3    1   31 1
     4    1   32 1
     5    2    3 1
     6    2    9 1
     7    2    4 1
     8    4    5 1
     9    4   33 1
    10    4   34 1
    11    5    6 1
    12    5    7 1
    13    5   29 1
    14    7    8 1
    15    7   35 1
    16    7   36 1
    17    8    9 1
    18    8   10 1
    19    8   64 1
    20    9   37 1
    21    9   38 1
    22   10   11 1
    23   10   39 1
    24   10   40 1
    25   11   12 1
    26   11   13 1
    27   11   28 1
    28   13   14 1
    29   13   41 1
    30   13   42 1
    31   14   15 1
    32   14   43 1
    33   14   44 1
    34   15   16 1
    35   16   17 1
    36   16   23 1
    37   16   18 1
    38   18   19 1
    39   18   45 1
    40   18   46 1
    41   19   20 1
    42   19   24 1
    43   19   21 1
    44   21   22 1
    45   21   47 1
    46   21   48 1
    47   22   23 1
    48   22   49 1
    49   22   50 1
    50   23   24 1
    51   23   27 1
    52   24   25 1
    53   24   26 1
    54   25   51 1
    55   25   52 1
    56   25   53 1
    57   26   54 1
    58   26   55 1
    59   26   56 1
    60   27   57 1
    61   27   58 1
    62   27   59 1
    63   28   60 1
    64   29   61 1
    65   29   62 1
    66   29   63 1
@<TRIPOS>MOLECULE
ZINC37105974
   41    42     0     0     0
SMALL
USER_CHARGES

@<TRIPOS>ATOM
      1 C1         -0.7679   -6.3802    2.9342 C.3       1 <0>        -0.0886
      2 C2         -0.1873   -5.7448    1.6971 C.2       1 <0>         0.0385
      3 C3         -0.3248   -6.2020    0.4396 C.2       1 <0>        -0.2156
      4 C4          0.3757   -5.3063   -0.4007 C.2       1 <0>        -0.1292
      5 C5          0.8994   -4.3554    0.3937 C.2       1 <0>        -0.1102
      6 O1          0.5502   -4.6230    1.6627 O.3       1 <0>        -0.1793
      7 C6          1.7318   -3.1853   -0.0634 C.3       1 <0>         0.1312
      8 H1          2.1453   -3.3967   -1.0495 H         1 <0>         0.1635
      9 C7          0.8555   -1.9332   -0.1354 C.3       1 <0>        -0.1835
     10 N1          2.8275   -2.9620    0.8893 N.4       1 <0>        -0.5092
     11 C8          3.7427   -4.1107    0.8610 C.3       1 <0>         0.0869
     12 H2          3.1791   -5.0286    1.0282 H         1 <0>         0.1446
     13 C9          4.4345   -4.1781   -0.5020 C.3       1 <0>        -0.1773
     14 C10         4.7795   -3.9537    1.9434 C.ar      1 <0>        -0.1805
     15 C11         5.3240   -2.7093    2.2022 C.ar      1 <0>        -0.0647
     16 C12         6.2749   -2.5624    3.1935 C.ar      1 <0>        -0.1918
     17 C13         6.6835   -3.6645    3.9302 C.ar      1 <0>         0.1852
     18 C14         6.1354   -4.9125    3.6691 C.ar      1 <0>        -0.1247
     19 C15         5.1803   -5.0531    2.6796 C.ar      1 <0>        -0.0185
     20 Br1         6.6896   -6.4180    4.6703 Br        1 <0>        -0.0048
     21 O2          7.6193   -3.5224    4.9056 O.3       1 <0>        -0.2924
     22 C16         8.1399   -2.2088    5.1188 C.3       1 <0>         0.0190
     23 H3         -0.4972   -5.7877    3.8082 H         1 <0>         0.0819
     24 H4         -1.8535   -6.4222    2.8458 H         1 <0>         0.0985
     25 H5         -0.3729   -7.3902    3.0434 H         1 <0>         0.0979
     26 H6         -0.8659   -7.0842    0.1310 H         1 <0>         0.1625
     27 H7          0.4722   -5.3730   -1.4743 H         1 <0>         0.1609
     28 H8          1.4745   -1.0702   -0.3807 H         1 <0>         0.0912
     29 H9          0.0953   -2.0656   -0.9052 H         1 <0>         0.1128
     30 H10         0.3725   -1.7718    0.8283 H         1 <0>         0.0861
     31 H11         3.3300   -2.1252    0.6339 H         1 <0>         0.4272
     32 H12         4.9146   -3.2226   -0.7134 H         1 <0>         0.0840
     33 H13         5.1862   -4.9674   -0.4893 H         1 <0>         0.1097
     34 H14         3.6957   -4.3924   -1.2742 H         1 <0>         0.0850
     35 H15         5.0058   -1.8513    1.6286 H         1 <0>         0.1288
     36 H16         6.7002   -1.5902    3.3945 H         1 <0>         0.1498
     37 H17         4.7503   -6.0231    2.4785 H         1 <0>         0.1483
     38 H18         8.8756   -2.2356    5.9226 H         1 <0>         0.1151
     39 H19         8.6141   -1.8531    4.2041 H         1 <0>         0.0647
     40 H20         7.3273   -1.5358    5.3923 H         1 <0>         0.0640
     41 H21         2.4488   -2.8565    1.8186 H         1 <0>         0.4329
@<TRIPOS>BOND
     1    1    2 1
     2    1   23 1
     3    1   24 1
     4    1   25 1
     5    2    6 1
     6    2    3 2
     7    3    4 1
     8    3   26 1
     9    4    5 2
    10    4   27 1
    11    5    6 1
    12    5    7 1
    13    7    8 1
    14    7    9 1
    15    7   10 1
    16    9   28 1
    17    9   29 1
    18    9   30 1
    19   10   11 1
    20   10   31 1
    21   10   41 1
    22   11   12 1
    23   11   13 1
    24   11   14 1
    25   13   32 1
    26   13   33 1
    27   13   34 1
    28   14   19 ar
    29   14   15 ar
    30   15   16 ar
    31   15   35 1
    32   16   17 ar
    33   16   36 1
    34   17   18 ar
    35   17   21 1
    36   18   19 ar
    37   18   20 1
    38   19   37 1
    39   21   22 1
    40   22   38 1
    41   22   39 1
    42   22   40 1
@<TRIPOS>MOLECULE
ZINC51549157
   44    46     0     0     0
SMALL
USER_CHARGES

@<TRIPOS>ATOM
      1 C1         -0.0167    1.3795    0.0096 C.ar      1 <0>         0.0212
      2 C2          1.1951    2.0584    0.0017 C.ar      1 <0>        -0.1923
      3 C3          2.3731    1.3372   -0.0134 C.ar      1 <0>         0.2150
      4 N1          2.3580    0.0177   -0.0204 N.ar      1 <0>        -0.5187
      5 C4          1.2246   -0.6635   -0.0132 C.ar      1 <0>         0.3658
      6 C5          0.0021   -0.0041    0.0020 C.ar      1 <0>        -0.2406
      7 C6         -1.2867   -0.7851    0.0106 C.3       1 <0>         0.0677
      8 N2         -1.5673   -1.2519    1.3749 N.4       1 <0>        -0.4797
      9 C7         -2.8235   -2.0133    1.3833 C.3       1 <0>        -0.0832
     10 C8         -3.9859   -1.4494    2.2029 C.3       1 <0>        -0.1537
     11 C9         -3.2326   -2.6869    2.6948 C.3       1 <0>        -0.1543
     12 O1          1.2561   -2.0201   -0.0212 O.3       1 <0>        -0.3120
     13 C10         2.5439   -2.6390   -0.0373 C.3       1 <0>         0.0976
     14 C11         3.0118   -2.7808   -1.5002 C.3       1 <0>        -0.1270
     15 C12         4.5082   -2.9384   -1.5102 C.3       1 <0>        -0.1176
     16 C13         4.9452   -4.4156   -1.5280 C.3       1 <0>        -0.1225
     17 C14         4.1033   -5.2990   -0.5873 C.3       1 <0>        -0.1248
     18 C15         3.8250   -4.6325    0.7327 C.3       1 <0>        -0.1094
     19 C16         2.4588   -3.9219    0.6447 C.3       1 <0>        -0.1256
     20 Br1         1.2318    3.9490    0.0109 Br        1 <0>         0.0018
     21 H1         -0.9521    1.9192    0.0259 H         1 <0>         0.1621
     22 H2          3.3182    1.8598   -0.0200 H         1 <0>         0.1823
     23 H3         -2.1013   -0.1457   -0.3294 H         1 <0>         0.1430
     24 H4         -1.1960   -1.6431   -0.6555 H         1 <0>         0.1448
     25 H5         -0.8131   -1.8438    1.6897 H         1 <0>         0.4291
     26 H6         -3.0661   -2.5304    0.4549 H         1 <0>         0.1793
     27 H7         -3.8185   -0.5134    2.7358 H         1 <0>         0.1209
     28 H8         -4.9935   -1.5952    1.8136 H         1 <0>         0.1346
     29 H9         -3.7446   -3.6469    2.6291 H         1 <0>         0.1348
     30 H10        -2.5696   -2.5651    3.5513 H         1 <0>         0.1202
     31 H11         3.2483   -2.0013    0.4968 H         1 <0>         0.0943
     32 H12         2.5480   -3.6589   -1.9495 H         1 <0>         0.0758
     33 H13         2.7337   -1.8888   -2.0616 H         1 <0>         0.0673
     34 H14         4.9092   -2.4413   -2.3935 H         1 <0>         0.0678
     35 H15         4.9192   -2.4597   -0.6214 H         1 <0>         0.0650
     36 H16         4.8529   -4.7973   -2.5448 H         1 <0>         0.0634
     37 H17         5.9906   -4.4767   -1.2254 H         1 <0>         0.0652
     38 H18         3.1550   -5.5281   -1.0736 H         1 <0>         0.0618
     39 H19         4.6386   -6.2310   -0.4059 H         1 <0>         0.0669
     40 H20         3.7972   -5.3827    1.5230 H         1 <0>         0.0764
     41 H21         4.6050   -3.9014    0.9454 H         1 <0>         0.0720
     42 H22         2.0791   -3.7608    1.6537 H         1 <0>         0.0667
     43 H23         1.7616   -4.5629    0.1053 H         1 <0>         0.0748
     44 H24        -1.6512   -0.4577    1.9916 H         1 <0>         0.4236
@<TRIPOS>BOND
     1    1    6 ar
     2    1    2 ar
     3    1   21 1
     4    2    3 ar
     5    2   20 1
     6    3    4 ar
     7    3   22 1
     8    4    5 ar
     9    5    6 ar
    10    5   12 1
    11    6    7 1
    12    7    8 1
    13    7   23 1
    14    7   24 1
    15    8    9 1
    16    8   25 1
    17    8   44 1
    18    9   11 1
    19    9   10 1
    20    9   26 1
    21   10   11 1
    22   10   27 1
    23   10   28 1
    24   11   29 1
    25   11   30 1
    26   12   13 1
    27   13   19 1
    28   13   14 1
    29   13   31 1
    30   14   15 1
    31   14   32 1
    32   14   33 1
    33   15   16 1
    34   15   34 1
    35   15   35 1
    36   16   17 1
    37   16   36 1
    38   16   37 1
    39   17   18 1
    40   17   38 1
    41   17   39 1
    42   18   19 1
    43   18   40 1
    44   18   41 1
    45   19   42 1
    46   19   43 1
@<TRIPOS>MOLECULE
ZINC00521805
   42    44     0     0     0
SMALL
USER_CHARGES

@<TRIPOS>ATOM
      1 C1          0.0037    1.3673    0.3002 C.ar      1 <0>        -0.0534
      2 C2          1.1542    2.0858    0.0255 C.ar      1 <0>        -0.1067
      3 C3          2.3359    1.4275   -0.2645 C.ar      1 <0>        -0.0745
      4 C4          2.3748    0.0486   -0.2821 C.ar      1 <0>        -0.0451
      5 C5          1.2177   -0.6828   -0.0059 C.ar      1 <0>         0.1244
      6 C6          0.0281   -0.0115    0.2865 C.ar      1 <0>        -0.1356
      7 N1          1.2489   -2.0509   -0.0221 N.2       1 <0>        -0.5129
      8 C7          0.3305   -2.7164   -0.6650 C.2       1 <0>         0.2638
      9 C8          0.2935   -4.1840   -0.5840 C.ar      1 <0>        -0.1127
     10 C9         -0.6867   -4.9025   -1.2768 C.ar      1 <0>        -0.0464
     11 C10        -0.7153   -6.2786   -1.1968 C.ar      1 <0>        -0.0426
     12 C11         0.2234   -6.9544   -0.4324 C.ar      1 <0>        -0.0516
     13 C12         1.1969   -6.2566    0.2575 C.ar      1 <0>        -0.0675
     14 C13         1.2444   -4.8724    0.1839 C.ar      1 <0>         0.1795
     15 O1          2.2035   -4.1864    0.8565 O.3       1 <0>        -0.4680
     16 Cl1         2.3659   -7.1145    1.2121 Cl        1 <0>        -0.0253
     17 Cl2        -1.9325   -7.1691   -2.0566 Cl        1 <0>        -0.0304
     18 N2          3.5696   -0.6150   -0.5763 N.4       1 <0>        -0.3148
     19 C14         4.5870   -0.2511    0.4172 C.3       1 <0>        -0.0034
     20 C15         5.8724   -1.0364    0.1477 C.3       1 <0>        -0.1456
     21 C16         6.3843   -0.7008   -1.2561 C.3       1 <0>        -0.1380
     22 C17         5.2873   -1.0149   -2.2774 C.3       1 <0>        -0.1455
     23 C18         4.0237   -0.2304   -1.9181 C.3       1 <0>        -0.0069
     24 H1         -0.9144    1.8876    0.5302 H         1 <0>         0.1488
     25 H2          1.1293    3.1654    0.0372 H         1 <0>         0.1506
     26 H3          3.2301    1.9944   -0.4779 H         1 <0>         0.1465
     27 H4         -0.8705   -0.5710    0.5010 H         1 <0>         0.1462
     28 H5         -0.4032   -2.1896   -1.2572 H         1 <0>         0.1307
     29 H6         -1.4201   -4.3800   -1.8732 H         1 <0>         0.1559
     30 H7          0.1936   -8.0325   -0.3753 H         1 <0>         0.1582
     31 H8          1.9505   -3.9357    1.7555 H         1 <0>         0.4009
     32 H9          4.7937    0.8171    0.3505 H         1 <0>         0.1251
     33 H10         4.2199   -0.4876    1.4159 H         1 <0>         0.1291
     34 H11         6.6271   -0.7635    0.8852 H         1 <0>         0.1132
     35 H12         5.6669   -2.1048    0.2144 H         1 <0>         0.0897
     36 H13         6.6383    0.3579   -1.3080 H         1 <0>         0.0819
     37 H14         7.2682   -1.3000   -1.4746 H         1 <0>         0.0954
     38 H15         5.6239   -0.7266   -3.2733 H         1 <0>         0.1133
     39 H16         5.0697   -2.0828   -2.2611 H         1 <0>         0.0874
     40 H17         3.2407   -0.4515   -2.6434 H         1 <0>         0.1246
     41 H18         4.2423    0.8374   -1.9350 H         1 <0>         0.1274
     42 H19         3.4155   -1.6117   -0.5473 H         1 <0>         0.4342
@<TRIPOS>BOND
     1    1    6 ar
     2    1    2 ar
     3    1   24 1
     4    2    3 ar
     5    2   25 1
     6    3    4 ar
     7    3   26 1
     8    4    5 ar
     9    4   18 1
    10    5    6 ar
    11    5    7 1
    12    6   27 1
    13    7    8 2
    14    8    9 1
    15    8   28 1
    16    9   14 ar
    17    9   10 ar
    18   10   11 ar
    19   10   29 1
    20   11   12 ar
    21   11   17 1
    22   12   13 ar
    23   12   30 1
    24   13   14 ar
    25   13   16 1
    26   14   15 1
    27   15   31 1
    28   18   23 1
    29   18   19 1
    30   18   42 1
    31   19   20 1
    32   19   32 1
    33   19   33 1
    34   20   21 1
    35   20   34 1
    36   20   35 1
    37   21   22 1
    38   21   36 1
    39   21   37 1
    40   22   23 1
    41   22   38 1
    42   22   39 1
    43   23   40 1
    44   23   41 1
@<TRIPOS>MOLECULE
ZINC67116784
   40    42     0     0     0
SMALL
USER_CHARGES

@<TRIPOS>ATOM
      1 C1         -0.0187    1.5258    0.0104 C.3       1 <0>        -0.1811
      2 C2          0.0021   -0.0041    0.0020 C.3       1 <0>         0.0825
      3 H1         -1.0205   -0.3814    0.0098 H         1 <0>         0.1510
      4 C3          0.7309   -0.5033    1.2229 C.ar      1 <0>        -0.1449
      5 C4          2.1131   -0.5137    1.2464 C.ar      1 <0>        -0.1077
      6 C5          2.7822   -0.9714    2.3658 C.ar      1 <0>        -0.0974
      7 C6          2.0683   -1.4193    3.4631 C.ar      1 <0>        -0.0132
      8 C7          0.6850   -1.4086    3.4390 C.ar      1 <0>        -0.0987
      9 C8          0.0171   -0.9454    2.3211 C.ar      1 <0>        -0.0725
     10 Cl1         2.9079   -1.9949    4.8692 Cl        1 <0>        -0.0372
     11 N1          0.6897   -0.4778   -1.2066 N.4       1 <0>        -0.5090
     12 C9         -0.0856   -0.0931   -2.3936 C.3       1 <0>         0.0886
     13 C10         0.6198   -0.5791   -3.6335 C.2       1 <0>        -0.0904
     14 C11         0.3713   -1.7282   -4.2872 C.2       1 <0>         0.0002
     15 O1          1.2155   -1.7823   -5.3368 O.3       1 <0>        -0.1765
     16 C12         1.9685   -0.6690   -5.3132 C.2       1 <0>         0.2769
     17 N2          1.6034    0.0602   -4.2849 N.2       1 <0>        -0.4618
     18 C13         3.0265   -0.3220   -6.2851 C.ar      1 <0>        -0.0275
     19 C14         3.7436    0.8675   -6.1447 C.ar      1 <0>        -0.0437
     20 C15         4.7304    1.1874   -7.0535 C.ar      1 <0>        -0.1255
     21 C16         5.0112    0.3310   -8.1058 C.ar      1 <0>         0.1065
     22 C17         4.3018   -0.8528   -8.2515 C.ar      1 <0>         0.0736
     23 C18         3.3159   -1.1851   -7.3430 C.ar      1 <0>        -0.0891
     24 F1          4.5793   -1.6836   -9.2800 F         1 <0>        -0.1145
     25 F2          5.9787    0.6497   -8.9934 F         1 <0>        -0.1122
     26 H2          1.0039    1.9031    0.0027 H         1 <0>         0.0848
     27 H3         -0.5459    1.8868   -0.8726 H         1 <0>         0.0877
     28 H4         -0.5289    1.8773    0.9072 H         1 <0>         0.1100
     29 H5          2.6703   -0.1643    0.3896 H         1 <0>         0.1290
     30 H6          3.8620   -0.9798    2.3839 H         1 <0>         0.1468
     31 H7          0.1273   -1.7584    4.2951 H         1 <0>         0.1487
     32 H8         -1.0627   -0.9326    2.3040 H         1 <0>         0.1451
     33 H9          1.6080   -0.0627   -1.2556 H         1 <0>         0.4289
     34 H10        -1.0777   -0.5415   -2.3406 H         1 <0>         0.1518
     35 H11        -0.1790    0.9922   -2.4305 H         1 <0>         0.1526
     36 H12        -0.3671   -2.4699   -4.0206 H         1 <0>         0.2315
     37 H13         3.5256    1.5367   -5.3255 H         1 <0>         0.1565
     38 H14         5.2852    2.1076   -6.9449 H         1 <0>         0.1632
     39 H15         2.7668   -2.1085   -7.4538 H         1 <0>         0.1577
     40 H16         0.7761   -1.4825   -1.1724 H         1 <0>         0.4295
@<TRIPOS>BOND
     1    1    2 1
     2    1   26 1
     3    1   27 1
     4    1   28 1
     5    2    3 1
     6    2    4 1
     7    2   11 1
     8    4    9 ar
     9    4    5 ar
    10    5    6 ar
    11    5   29 1
    12    6    7 ar
    13    6   30 1
    14    7    8 ar
    15    7   10 1
    16    8    9 ar
    17    8   31 1
    18    9   32 1
    19   11   12 1
    20   11   33 1
    21   11   40 1
    22   12   13 1
    23   12   34 1
    24   12   35 1
    25   13   17 1
    26   13   14 2
    27   14   15 1
    28   14   36 1
    29   15   16 1
    30   16   17 2
    31   16   18 1
    32   18   23 ar
    33   18   19 ar
    34   19   20 ar
    35   19   37 1
    36   20   21 ar
    37   20   38 1
    38   21   22 ar
    39   21   25 1
    40   22   23 ar
    41   22   24 1
    42   23   39 1
@<TRIPOS>MOLECULE
ZINC22827402
   53    56     0     0     0
SMALL
USER_CHARGES
6-[[4-[[3-(4-methoxyphenyl)-1,2,4-oxadiazol-5-yl]methyl]piperazin-1-yl]methyl]-1,3,5-triazine-2,4-diamine
@<TRIPOS>ATOM
      1 C1        -11.6869    3.6224   -2.1352 C.3       1 <0>         0.0195
      2 O1        -11.4826    2.3865   -2.8229 O.3       1 <0>        -0.3095
      3 C2        -10.2156    2.1068   -3.2250 C.ar      1 <0>         0.1580
      4 C3         -9.9480    0.9223   -3.8986 C.ar      1 <0>        -0.1525
      5 C4         -8.6630    0.6354   -4.3075 C.ar      1 <0>        -0.0379
      6 C5         -7.6320    1.5360   -4.0447 C.ar      1 <0>        -0.0786
      7 C6         -7.9027    2.7221   -3.3641 C.ar      1 <0>        -0.0312
      8 C7         -9.1905    3.0056   -2.9614 C.ar      1 <0>        -0.2141
      9 C8         -6.2482    1.2300   -4.4829 C.2       1 <0>         0.2286
     10 N1         -5.1568    2.0067   -4.2969 N.2       1 <0>        -0.4690
     11 C9         -4.1615    1.3506   -4.8394 C.2       1 <0>         0.1658
     12 O2         -4.6628    0.2159   -5.3375 O.3       1 <0>         0.1012
     13 N2         -5.8549    0.1582   -5.1213 N.2       1 <0>        -0.3662
     14 C10        -2.7225    1.7944   -4.8969 C.3       1 <0>         0.1484
     15 N3         -2.0121    1.3078   -3.7068 N.3       1 <0>        -0.5336
     16 C11        -0.6771    1.9138   -3.6059 C.3       1 <0>         0.0270
     17 C12         0.0588    1.3229   -2.4010 C.3       1 <0>         0.0025
     18 N4         -0.7232    1.5724   -1.1821 N.4       1 <0>        -0.3981
     19 C13        -2.0582    0.9664   -1.2830 C.3       1 <0>         0.0034
     20 C14        -2.7940    1.5574   -2.4879 C.3       1 <0>         0.0226
     21 C15        -0.0127    1.0858    0.0080 C.3       1 <0>         0.0795
     22 C16        -0.7181    1.5718    1.2479 C.ar      1 <0>         0.3772
     23 N5         -0.3742    2.7259    1.7921 N.ar      1 <0>        -0.6330
     24 C17        -0.9981    3.1607    2.8846 C.ar      1 <0>         0.6432
     25 N6         -1.9607    2.4280    3.4337 N.ar      1 <0>        -0.6469
     26 C18        -2.3001    1.2659    2.8866 C.ar      1 <0>         0.6428
     27 N7         -1.6751    0.8402    1.7912 N.ar      1 <0>        -0.6332
     28 N8         -3.2990    0.5009    3.4535 N.pl3     1 <0>        -0.8197
     29 N9         -0.6419    4.3685    3.4491 N.pl3     1 <0>        -0.8195
     30 H1        -12.7494    3.7223   -1.8684 H         1 <0>         0.1088
     31 H2        -11.3925    4.4579   -2.7873 H         1 <0>         0.0612
     32 H3        -11.0761    3.6383   -1.2205 H         1 <0>         0.0597
     33 H4        -10.7472    0.2249   -4.1020 H         1 <0>         0.1434
     34 H5         -8.4553   -0.2863   -4.8307 H         1 <0>         0.1392
     35 H6         -7.1051    3.4196   -3.1552 H         1 <0>         0.1349
     36 H7         -9.4015    3.9259   -2.4370 H         1 <0>         0.1384
     37 H8         -2.2481    1.3840   -5.8005 H         1 <0>         0.1330
     38 H9         -2.6785    2.8931   -4.9265 H         1 <0>         0.0976
     39 H10        -0.1084    1.7029   -4.5236 H         1 <0>         0.1350
     40 H11        -0.7770    3.0018   -3.4783 H         1 <0>         0.0694
     41 H12         0.1831    0.2392   -2.5427 H         1 <0>         0.1428
     42 H13         1.0473    1.7961   -2.3069 H         1 <0>         0.1453
     43 H14        -1.9583   -0.1216   -1.4107 H         1 <0>         0.1418
     44 H15        -2.6269    1.1772   -0.3653 H         1 <0>         0.1343
     45 H16        -2.9181    2.6413   -2.3474 H         1 <0>         0.0692
     46 H17        -3.7826    1.0845   -2.5831 H         1 <0>         0.1171
     47 H18         0.0022   -0.0141    0.0019 H         1 <0>         0.1554
     48 H19         1.0193    1.4665    0.0002 H         1 <0>         0.1598
     49 H20        -3.5794   -0.4612    2.9999 H         1 <0>         0.4472
     50 H21        -3.8148    0.8532    4.3590 H         1 <0>         0.4502
     51 H22        -1.1579    4.7271    4.3519 H         1 <0>         0.4502
     52 H23         0.1581    4.9726    2.9963 H         1 <0>         0.4473
     53 H24        -0.8508    2.6599   -1.0770 H         1 <0>         0.4418
@<TRIPOS>BOND
     1    1    2 1
     2    1   30 1
     3    1   31 1
     4    1   32 1
     5    2    3 1
     6    3    8 ar
     7    3    4 ar
     8    4    5 ar
     9    4   33 1
    10    5    6 ar
    11    5   34 1
    12    6    7 ar
    13    6    9 1
    14    7    8 ar
    15    7   35 1
    16    8   36 1
    17    9   13 2
    18    9   10 1
    19   10   11 2
    20   11   12 1
    21   11   14 1
    22   12   13 1
    23   14   15 1
    24   14   37 1
    25   14   38 1
    26   15   20 1
    27   15   16 1
    28   16   17 1
    29   16   39 1
    30   16   40 1
    31   17   18 1
    32   17   41 1
    33   17   42 1
    34   18   19 1
    35   18   21 1
    36   18   53 1
    37   19   20 1
    38   19   43 1
    39   19   44 1
    40   20   45 1
    41   20   46 1
    42   21   22 1
    43   21   47 1
    44   21   48 1
    45   22   27 ar
    46   22   23 ar
    47   23   24 ar
    48   24   25 ar
    49   24   29 1
    50   25   26 ar
    51   26   27 ar
    52   26   28 1
    53   28   49 1
    54   28   50 1
    55   29   51 1
    56   29   52 1
@<TRIPOS>MOLECULE
ZINC40377069
   39    40     0     0     0
SMALL
USER_CHARGES

@<TRIPOS>ATOM
      1 C1          0.8036    1.9535    1.0766 C.3       1 <0>        -0.0494
      2 N1          0.6058    0.5124    0.8721 N.4       1 <0>        -0.3840
      3 C2          0.9985    0.1555   -0.4965 C.3       1 <0>        -0.0108
      4 C3          0.7184   -1.3289   -0.7408 C.3       1 <0>        -0.1753
      5 C4          1.5235   -2.1657    0.2575 C.3       1 <0>         0.2424
      6 C5          1.1602   -1.7333    1.6810 C.3       1 <0>        -0.1425
      7 C6          1.4238   -0.2339    1.8356 C.3       1 <0>        -0.0085
      8 C7          1.1929   -3.6246    0.0743 C.2       1 <0>         0.3467
      9 N2          0.2691   -3.9781   -0.7568 N.2       1 <0>        -0.4024
     10 O1         -0.0415   -5.3488   -0.9290 O.3       1 <0>        -0.4024
     11 N3          1.8756   -4.5809    0.7927 N.pl3     1 <0>        -0.8498
     12 N4          2.9554   -1.9542    0.0317 N.pl3     1 <0>        -1.1133
     13 S1          3.6635   -2.5008   -1.3619 S.o2      1 <0>         2.7163
     14 O2          5.0407   -2.1609   -1.2781 O.2       1 <0>        -0.9274
     15 O3          3.2186   -3.8378   -1.5461 O.2       1 <0>        -0.9094
     16 C8          2.9923   -1.5591   -2.6914 C.2       1 <0>        -0.7883
     17 C9          3.3538   -0.3305   -3.1345 C.2       1 <0>         0.0000
     18 C10         2.6786    0.2210   -4.2075 C.2       1 <0>        -0.1552
     19 C11         1.6743   -0.4845   -4.7847 C.2       1 <0>        -0.1415
     20 S2          1.6649   -1.9794   -3.8088 S.3       1 <0>         0.2641
     21 Br1         0.5744   -0.0109   -6.2482 Br        1 <0>         0.0751
     22 H1          1.8551    2.2004    0.9295 H         1 <0>         0.1234
     23 H2          0.1966    2.5087    0.3615 H         1 <0>         0.1268
     24 H3          0.5061    2.2208    2.0906 H         1 <0>         0.1281
     25 H4          0.4270    0.7542   -1.2058 H         1 <0>         0.1421
     26 H5          2.0622    0.3511   -0.6315 H         1 <0>         0.1297
     27 H6         -0.3452   -1.5256   -0.6064 H         1 <0>         0.1276
     28 H7          1.0123   -1.5923   -1.7569 H         1 <0>         0.1235
     29 H8          0.1057   -1.9383    1.8657 H         1 <0>         0.1177
     30 H9          1.7698   -2.2857    2.3960 H         1 <0>         0.1294
     31 H10         2.4785   -0.0300    1.6509 H         1 <0>         0.1323
     32 H11         1.1664    0.0773    2.8480 H         1 <0>         0.1460
     33 H12        -0.7453   -5.5150   -1.5710 H         1 <0>         0.4049
     34 H13         2.5170   -4.3131    1.4693 H         1 <0>         0.3936
     35 H14         1.7150   -5.5222    0.6221 H         1 <0>         0.4184
     36 H15         3.4888   -1.4939    0.6985 H         1 <0>         0.4268
     37 H16         4.1573    0.2100   -2.6562 H         1 <0>         0.1578
     38 H17         2.9465    1.1986   -4.5802 H         1 <0>         0.1589
     39 H18        -0.3673    0.2845    1.0109 H         1 <0>         0.4286
@<TRIPOS>BOND
     1    1    2 1
     2    1   22 1
     3    1   23 1
     4    1   24 1
     5    2    7 1
     6    2    3 1
     7    2   39 1
     8    3    4 1
     9    3   25 1
    10    3   26 1
    11    4    5 1
    12    4   27 1
    13    4   28 1
    14    5    6 1
    15    5    8 1
    16    5   12 1
    17    6    7 1
    18    6   29 1
    19    6   30 1
    20    7   31 1
    21    7   32 1
    22    8    9 2
    23    8   11 1
    24    9   10 1
    25   10   33 1
    26   11   34 1
    27   11   35 1
    28   12   13 1
    29   12   36 1
    30   13   14 2
    31   13   15 2
    32   13   16 1
    33   16   20 1
    34   16   17 2
    35   17   18 1
    36   17   37 1
    37   18   19 2
    38   18   38 1
    39   19   20 1
    40   19   21 1
@<TRIPOS>MOLECULE
ZINC48038255
   49    50     0     0     0
SMALL
USER_CHARGES

@<TRIPOS>ATOM
      1 C1          0.1859    1.3101   -0.9356 C.3       1 <0>        -0.1578
      2 C2         -0.1043   -0.1400   -0.5434 C.3       1 <0>        -0.1109
      3 C3          1.0027   -0.6495    0.3817 C.3       1 <0>        -0.1847
      4 C4         -1.4492   -0.2126    0.1826 C.3       1 <0>         0.0202
      5 H1         -1.4117    0.4055    1.0796 H         1 <0>         0.1488
      6 C5         -2.5562    0.2975   -0.7423 C.3       1 <0>         0.0935
      7 N1         -3.8544    0.1432   -0.0812 N.am      1 <0>        -0.7256
      8 C6         -4.9894    0.4254   -0.7511 C.2       1 <0>         0.5253
      9 O1         -4.9359    0.8073   -1.9019 O.2       1 <0>        -0.4734
     10 C7         -6.3124    0.2682   -0.0774 C.2       1 <0>         0.4981
     11 O2         -6.3659   -0.1137    1.0735 O.2       1 <0>        -0.4854
     12 N2         -7.4474    0.5504   -0.7473 N.am      1 <0>        -0.5740
     13 C8         -8.6739    0.4047   -0.1228 C.2       1 <0>         0.0549
     14 C9         -9.9348    0.6407   -0.6530 C.2       1 <0>        -0.2437
     15 C10       -11.0583    0.4069    0.2240 C.2       1 <0>        -0.1050
     16 C11       -10.7554   -0.0166    1.4659 C.2       1 <0>        -0.2345
     17 S1         -8.9783   -0.1047    1.4465 S.3       1 <0>         0.2882
     18 C12       -10.1168    1.1042   -2.0325 C.2       1 <0>         0.5869
     19 O3         -9.1476    1.2916   -2.7444 O.2       1 <0>        -0.5602
     20 N3        -11.3574    1.3225   -2.5119 N.am      1 <0>        -0.8436
     21 N4         -1.7281   -1.6050    0.5586 N.4       1 <0>        -0.3932
     22 C13        -1.2274   -2.5291   -0.4909 C.3       1 <0>        -0.0286
     23 C14        -1.0719   -3.8728    0.2648 C.3       1 <0>        -0.1435
     24 C15        -0.5618   -3.4303    1.6555 C.3       1 <0>        -0.1436
     25 C16        -0.9912   -1.9577    1.7915 C.3       1 <0>        -0.0350
     26 H2          1.1440    1.3618   -1.4528 H         1 <0>         0.0827
     27 H3         -0.6028    1.6730   -1.5946 H         1 <0>         0.0718
     28 H4          0.2233    1.9285   -0.0388 H         1 <0>         0.0707
     29 H5         -0.1417   -0.7585   -1.4402 H         1 <0>         0.1056
     30 H6          0.9461   -0.1284    1.3374 H         1 <0>         0.0765
     31 H7          0.8769   -1.7200    0.5436 H         1 <0>         0.0691
     32 H8          1.9738   -0.4630   -0.0768 H         1 <0>         0.0899
     33 H9         -2.3856    1.3504   -0.9668 H         1 <0>         0.1235
     34 H10        -2.5494   -0.2773   -1.6684 H         1 <0>         0.1050
     35 H11        -3.8972   -0.1619    0.8385 H         1 <0>         0.4103
     36 H12        -7.4047    0.8556   -1.6670 H         1 <0>         0.4459
     37 H13       -12.0780    0.5624   -0.0962 H         1 <0>         0.1497
     38 H14       -11.4291   -0.2506    2.2769 H         1 <0>         0.1959
     39 H15       -12.1299    1.1731   -1.9446 H         1 <0>         0.4037
     40 H16       -11.4778    1.6290   -3.4243 H         1 <0>         0.4086
     41 H17        -1.9533   -2.6237   -1.2985 H         1 <0>         0.1349
     42 H18        -0.2652   -2.1901   -0.8748 H         1 <0>         0.1508
     43 H19        -2.0325   -4.3808    0.3499 H         1 <0>         0.0982
     44 H20        -0.3394   -4.5108   -0.2297 H         1 <0>         0.1184
     45 H21        -1.0241   -4.0329    2.4373 H         1 <0>         0.1072
     46 H22         0.5239   -3.5139    1.7044 H         1 <0>         0.1053
     47 H23        -0.1114   -1.3222    1.8929 H         1 <0>         0.1498
     48 H24        -1.6404   -1.8388    2.6590 H         1 <0>         0.1325
     49 H25        -2.7190   -1.7369    0.6958 H         1 <0>         0.4207
@<TRIPOS>BOND
     1    1    2 1
     2    1   26 1
     3    1   27 1
     4    1   28 1
     5    2    3 1
     6    2    4 1
     7    2   29 1
     8    3   30 1
     9    3   31 1
    10    3   32 1
    11    4    5 1
    12    4    6 1
    13    4   21 1
    14    6    7 1
    15    6   33 1
    16    6   34 1
    17    7    8 am
    18    7   35 1
    19    8    9 2
    20    8   10 1
    21   10   11 2
    22   10   12 am
    23   12   13 1
    24   12   36 1
    25   13   17 1
    26   13   14 2
    27   14   15 1
    28   14   18 1
    29   15   16 2
    30   15   37 1
    31   16   17 1
    32   16   38 1
    33   18   19 2
    34   18   20 am
    35   20   39 1
    36   20   40 1
    37   21   25 1
    38   21   22 1
    39   21   49 1
    40   22   23 1
    41   22   41 1
    42   22   42 1
    43   23   24 1
    44   23   43 1
    45   23   44 1
    46   24   25 1
    47   24   45 1
    48   24   46 1
    49   25   47 1
    50   25   48 1
@<TRIPOS>MOLECULE
ZINC56098206
   54    55     0     0     0
SMALL
USER_CHARGES

@<TRIPOS>ATOM
      1 C1         -0.7587   -3.8260   -1.4170 C.3       1 <0>        -0.1630
      2 C2          0.7544   -3.6606   -1.5722 C.3       1 <0>         0.1461
      3 H1          1.1206   -4.3576   -2.3260 H         1 <0>         0.1202
      4 C3          1.0642   -2.2493   -2.0002 C.2       1 <0>         0.5210
      5 O1          1.7636   -1.5442   -1.3041 O.2       1 <0>        -0.5077
      6 N1          0.5640   -1.7706   -3.1566 N.am      1 <0>        -0.7423
      7 C4          0.8651   -0.3986   -3.5727 C.3       1 <0>         0.1031
      8 C5          0.2829   -0.1486   -4.9653 C.3       1 <0>         0.0824
      9 H2          0.4255    0.8975   -5.2363 H         1 <0>         0.1627
     10 C6          0.9847   -1.0276   -5.9684 C.ar      1 <0>        -0.1736
     11 C7          0.3869   -2.1952   -6.4022 C.ar      1 <0>        -0.1009
     12 C8          1.0304   -3.0022   -7.3220 C.ar      1 <0>        -0.1323
     13 C9          2.2733   -2.6429   -7.8104 C.ar      1 <0>        -0.0513
     14 C10         2.8749   -1.4764   -7.3801 C.ar      1 <0>        -0.1895
     15 C11         2.2288   -0.6621   -6.4610 C.ar      1 <0>         0.1640
     16 O2          2.8162    0.4889   -6.0404 O.3       1 <0>        -0.3167
     17 C12         4.0975    0.8019   -6.5901 C.3       1 <0>         0.0225
     18 N2         -1.1523   -0.4617   -4.9595 N.4       1 <0>        -0.3836
     19 C13        -1.7335   -0.1102   -6.2607 C.3       1 <0>        -0.0139
     20 C14        -3.2106   -0.5090   -6.2883 C.3       1 <0>        -0.1446
     21 C15        -3.9556    0.2358   -5.1768 C.3       1 <0>        -0.1391
     22 C16        -3.2942   -0.0800   -3.8321 C.3       1 <0>        -0.1438
     23 C17        -1.8140    0.3029   -3.8955 C.3       1 <0>        -0.0164
     24 N3          1.4099   -3.9376   -0.2916 N.am      1 <0>        -0.7334
     25 C18         1.7136   -5.2055    0.0496 C.2       1 <0>         0.7115
     26 O3          1.4437   -6.1196   -0.7054 O.2       1 <0>        -0.5912
     27 N4          2.3167   -5.4603    1.2277 N.am      1 <0>        -0.8606
     28 H3         -1.1249   -3.1291   -0.6631 H         1 <0>         0.0679
     29 H4         -1.2464   -3.6200   -2.3698 H         1 <0>         0.0628
     30 H5         -0.9827   -4.8468   -1.1074 H         1 <0>         0.0855
     31 H6          0.0046   -2.3346   -3.7133 H         1 <0>         0.3931
     32 H7          0.4236    0.3014   -2.8633 H         1 <0>         0.1001
     33 H8          1.9454   -0.2559   -3.5995 H         1 <0>         0.1195
     34 H9         -0.5837   -2.4779   -6.0223 H         1 <0>         0.1186
     35 H10         0.5618   -3.9148   -7.6594 H         1 <0>         0.1398
     36 H11         2.7741   -3.2752   -8.5286 H         1 <0>         0.1406
     37 H12         3.8456   -1.1964   -7.7618 H         1 <0>         0.1434
     38 H13         4.8020    0.0071   -6.3451 H         1 <0>         0.0647
     39 H14         4.0157    0.8937   -7.6731 H         1 <0>         0.0647
     40 H15         4.4523    1.7437   -6.1714 H         1 <0>         0.1121
     41 H16        -1.6448    0.9645   -6.4194 H         1 <0>         0.1328
     42 H17        -1.2002   -0.6385   -7.0510 H         1 <0>         0.1342
     43 H18        -3.6407   -0.2456   -7.2546 H         1 <0>         0.1145
     44 H19        -3.3005   -1.5837   -6.1299 H         1 <0>         0.0867
     45 H20        -3.9094    1.3088   -5.3626 H         1 <0>         0.0835
     46 H21        -4.9964   -0.0872   -5.1558 H         1 <0>         0.0957
     47 H22        -3.7841    0.4901   -3.0427 H         1 <0>         0.1149
     48 H23        -3.3858   -1.1457   -3.6228 H         1 <0>         0.0870
     49 H24        -1.3402    0.0796   -2.9397 H         1 <0>         0.1330
     50 H25        -1.7236    1.3688   -4.1047 H         1 <0>         0.1347
     51 H26         1.6252   -3.2084    0.3107 H         1 <0>         0.4081
     52 H27         2.5320   -4.7311    1.8300 H         1 <0>         0.4006
     53 H28         2.5353   -6.3729    1.4733 H         1 <0>         0.4208
     54 H29        -1.2796   -1.4485   -4.7921 H         1 <0>         0.4109
@<TRIPOS>BOND
     1    1    2 1
     2    1   28 1
     3    1   29 1
     4    1   30 1
     5    2    3 1
     6    2    4 1
     7    2   24 1
     8    4    5 2
     9    4    6 am
    10    6    7 1
    11    6   31 1
    12    7    8 1
    13    7   32 1
    14    7   33 1
    15    8    9 1
    16    8   10 1
    17    8   18 1
    18   10   15 ar
    19   10   11 ar
    20   11   12 ar
    21   11   34 1
    22   12   13 ar
    23   12   35 1
    24   13   14 ar
    25   13   36 1
    26   14   15 ar
    27   14   37 1
    28   15   16 1
    29   16   17 1
    30   17   38 1
    31   17   39 1
    32   17   40 1
    33   18   23 1
    34   18   19 1
    35   18   54 1
    36   19   20 1
    37   19   41 1
    38   19   42 1
    39   20   21 1
    40   20   43 1
    41   20   44 1
    42   21   22 1
    43   21   45 1
    44   21   46 1
    45   22   23 1
    46   22   47 1
    47   22   48 1
    48   23   49 1
    49   23   50 1
    50   24   25 am
    51   24   51 1
    52   25   26 2
    53   25   27 am
    54   27   52 1
    55   27   53 1
@<TRIPOS>MOLECULE
ZINC66390669
   52    53     0     0     0
SMALL
USER_CHARGES

@<TRIPOS>ATOM
      1 C1          0.1001    1.4890   -0.0195 C.3       1 <0>        -0.1538
      2 C2          0.0869   -0.0377    0.0807 C.3       1 <0>         0.1213
      3 H1          0.6149   -0.3472    0.9827 H         1 <0>         0.0650
      4 C3          0.7688   -0.6263   -1.1274 C.ar      1 <0>        -0.0400
      5 C4          0.0845   -0.7274   -2.3247 C.ar      1 <0>        -0.0841
      6 C5          0.7055   -1.2668   -3.4346 C.ar      1 <0>        -0.0962
      7 C6          2.0191   -1.7076   -3.3480 C.ar      1 <0>         0.1092
      8 C7          2.7057   -1.6045   -2.1429 C.ar      1 <0>         0.0971
      9 C8          2.0792   -1.0588   -1.0375 C.ar      1 <0>        -0.1461
     10 F1          3.9840   -2.0326   -2.0537 F         1 <0>        -0.1344
     11 N1          2.6503   -2.2544   -4.4697 N.pl3     1 <0>        -0.6725
     12 C9          2.5796   -3.6970   -4.7493 C.3       1 <0>         0.1184
     13 C10         2.1396   -3.8888   -6.2044 C.3       1 <0>        -0.0228
     14 N2          3.0429   -3.1434   -7.0902 N.4       1 <0>        -0.3826
     15 C11         2.9245   -1.7034   -6.8282 C.3       1 <0>        -0.0224
     16 C12         3.3986   -1.4026   -5.4070 C.3       1 <0>         0.1178
     17 C13         2.6884   -3.4154   -8.4895 C.3       1 <0>        -0.0467
     18 N3         -1.3019   -0.5126    0.1390 N.3       1 <0>        -0.6631
     19 C14        -1.3858   -1.8125    0.8182 C.3       1 <0>         0.0727
     20 H2         -0.4832   -2.3883    0.6135 H         1 <0>         0.1083
     21 C15        -1.5191   -1.5922    2.3264 C.3       1 <0>        -0.1852
     22 C16        -2.5883   -2.5669    0.3124 C.2       1 <0>         0.5185
     23 O1         -3.3047   -2.0707   -0.5304 O.2       1 <0>        -0.4415
     24 N4         -2.8674   -3.7931    0.7971 N.am      1 <0>        -0.6938
     25 C17        -3.9429   -4.4678    0.3448 C.2       1 <0>         0.6957
     26 O2         -4.6611   -3.9704   -0.5002 O.2       1 <0>        -0.5329
     27 N5         -4.2220   -5.6940    0.8295 N.am      1 <0>        -0.8575
     28 H3          1.1307    1.8439   -0.0242 H         1 <0>         0.0699
     29 H4         -0.3944    1.7969   -0.9407 H         1 <0>         0.0709
     30 H5         -0.4265    1.9137    0.8351 H         1 <0>         0.0677
     31 H6         -0.9374   -0.3845   -2.3921 H         1 <0>         0.1461
     32 H7          0.1695   -1.3457   -4.3688 H         1 <0>         0.1290
     33 H8          2.6123   -0.9744   -0.1021 H         1 <0>         0.1387
     34 H9          3.5611   -4.1474   -4.6010 H         1 <0>         0.0797
     35 H10         1.8545   -4.1641   -4.0828 H         1 <0>         0.1152
     36 H11         2.1745   -4.9483   -6.4581 H         1 <0>         0.1374
     37 H12         1.1219   -3.5186   -6.3282 H         1 <0>         0.1308
     38 H13         3.5377   -1.1526   -7.5414 H         1 <0>         0.1380
     39 H14         1.8831   -1.3993   -6.9331 H         1 <0>         0.1305
     40 H15         3.2148   -0.3535   -5.1751 H         1 <0>         0.1163
     41 H16         4.4642   -1.6173   -5.3262 H         1 <0>         0.0792
     42 H17         1.6602   -3.1024   -8.6713 H         1 <0>         0.1211
     43 H18         3.3582   -2.8626   -9.1482 H         1 <0>         0.1242
     44 H19         2.7835   -4.4830   -8.6875 H         1 <0>         0.1240
     45 H20        -1.8983    0.1678    0.5856 H         1 <0>         0.3611
     46 H21        -0.6314   -1.0809    2.6988 H         1 <0>         0.0747
     47 H22        -2.4005   -0.9836    2.5281 H         1 <0>         0.0716
     48 H23        -1.6204   -2.5553    2.8266 H         1 <0>         0.0711
     49 H24        -2.2942   -4.1901    1.4715 H         1 <0>         0.4083
     50 H25        -3.6488   -6.0910    1.5039 H         1 <0>         0.4002
     51 H26        -4.9961   -6.1796    0.5040 H         1 <0>         0.4219
     52 H27         3.9937   -3.4372   -6.9234 H         1 <0>         0.4242
@<TRIPOS>BOND
     1    1    2 1
     2    1   28 1
     3    1   29 1
     4    1   30 1
     5    2    3 1
     6    2    4 1
     7    2   18 1
     8    4    9 ar
     9    4    5 ar
    10    5    6 ar
    11    5   31 1
    12    6    7 ar
    13    6   32 1
    14    7    8 ar
    15    7   11 1
    16    8    9 ar
    17    8   10 1
    18    9   33 1
    19   11   16 1
    20   11   12 1
    21   12   13 1
    22   12   34 1
    23   12   35 1
    24   13   14 1
    25   13   36 1
    26   13   37 1
    27   14   15 1
    28   14   17 1
    29   14   52 1
    30   15   16 1
    31   15   38 1
    32   15   39 1
    33   16   40 1
    34   16   41 1
    35   17   42 1
    36   17   43 1
    37   17   44 1
    38   18   19 1
    39   18   45 1
    40   19   20 1
    41   19   21 1
    42   19   22 1
    43   21   46 1
    44   21   47 1
    45   21   48 1
    46   22   23 2
    47   22   24 am
    48   24   25 am
    49   24   49 1
    50   25   26 2
    51   25   27 am
    52   27   50 1
    53   27   51 1
@<TRIPOS>MOLECULE
ZINC17068010
   45    46     0     0     0
SMALL
USER_CHARGES
3-[[2-[(6-methoxy-2-naphthyl)oxy]acetyl]amino]-1-propyl-urea
@<TRIPOS>ATOM
      1 C1          8.9888    9.2183   -0.0351 C.3       1 <0>        -0.1512
      2 C2          7.7895    8.2683   -0.0287 C.3       1 <0>        -0.1364
      3 C3          6.4941    9.0824   -0.0125 C.3       1 <0>         0.1324
      4 N1          5.3458    8.1727   -0.0063 N.am      1 <0>        -0.7442
      5 C4          4.0928    8.6692    0.0079 C.2       1 <0>         0.7135
      6 O1          3.9156    9.8721    0.0156 O.2       1 <0>        -0.5643
      7 N2          3.0364    7.8324    0.0135 N.am      1 <0>        -0.5287
      8 N3          3.2406    6.4463    0.0047 N.am      1 <0>        -0.5284
      9 C5          2.1841    5.6095    0.0103 C.2       1 <0>         0.5175
     10 O2          1.0567    6.0563    0.0231 O.2       1 <0>        -0.5011
     11 C6          2.4038    4.1186    0.0008 C.3       1 <0>         0.0524
     12 O3          1.1404    3.4509    0.0092 O.3       1 <0>        -0.2888
     13 C7          1.1606    2.0920    0.0022 C.ar      1 <0>         0.1148
     14 C8          2.3869    1.4203   -0.0139 C.ar      1 <0>        -0.1813
     15 C9          2.4395    0.0614   -0.0213 C.ar      1 <0>        -0.0703
     16 C10         1.2465   -0.6828   -0.0135 C.ar      1 <0>        -0.0421
     17 C11         1.2657   -2.0874   -0.0213 C.ar      1 <0>        -0.1438
     18 C12         0.0881   -2.7789   -0.0138 C.ar      1 <0>         0.1208
     19 C13        -1.1382   -2.1073    0.0015 C.ar      1 <0>        -0.1778
     20 C14        -1.1909   -0.7483    0.0089 C.ar      1 <0>        -0.0714
     21 C15         0.0021   -0.0041    0.0020 C.ar      1 <0>        -0.0447
     22 C16        -0.0170    1.4006    0.0097 C.ar      1 <0>        -0.1305
     23 O4          0.1084   -4.1379   -0.0209 O.3       1 <0>        -0.3179
     24 C17        -1.1549   -4.8056   -0.0125 C.3       1 <0>         0.0255
     25 H1          8.9462    9.8512   -0.9216 H         1 <0>         0.0596
     26 H2          8.9629    9.8422    0.8583 H         1 <0>         0.0597
     27 H3          9.9116    8.6384   -0.0467 H         1 <0>         0.0621
     28 H4          7.8320    7.6355    0.8578 H         1 <0>         0.0695
     29 H5          7.8154    7.6444   -0.9221 H         1 <0>         0.0695
     30 H6          6.4516    9.7152   -0.8990 H         1 <0>         0.0719
     31 H7          6.4682    9.7063    0.8809 H         1 <0>         0.0719
     32 H8          5.4871    7.2131   -0.0125 H         1 <0>         0.3907
     33 H9          2.1347    8.1897    0.0238 H         1 <0>         0.4455
     34 H10         4.1423    6.0890   -0.0056 H         1 <0>         0.4204
     35 H11         2.9734    3.8296    0.8840 H         1 <0>         0.1013
     36 H12         2.9567    3.8386   -0.8958 H         1 <0>         0.1013
     37 H13         3.3052    1.9887   -0.0200 H         1 <0>         0.1314
     38 H14         3.3938   -0.4442   -0.0335 H         1 <0>         0.1353
     39 H15         2.2066   -2.6175   -0.0327 H         1 <0>         0.1357
     40 H16        -2.0565   -2.6757    0.0068 H         1 <0>         0.1327
     41 H17        -2.1452   -0.2428    0.0204 H         1 <0>         0.1350
     42 H18        -0.9578    1.9308    0.0171 H         1 <0>         0.1379
     43 H19        -1.7079   -4.5256    0.8841 H         1 <0>         0.0563
     44 H20        -1.7245   -4.5166   -0.8957 H         1 <0>         0.0563
     45 H21        -0.9960   -5.8839   -0.0194 H         1 <0>         0.1016
@<TRIPOS>BOND
     1    1    2 1
     2    1   25 1
     3    1   26 1
     4    1   27 1
     5    2    3 1
     6    2   28 1
     7    2   29 1
     8    3    4 1
     9    3   30 1
    10    3   31 1
    11    4    5 am
    12    4   32 1
    13    5    6 2
    14    5    7 am
    15    7    8 1
    16    7   33 1
    17    8    9 am
    18    8   34 1
    19    9   10 2
    20    9   11 1
    21   11   12 1
    22   11   35 1
    23   11   36 1
    24   12   13 1
    25   13   22 ar
    26   13   14 ar
    27   14   15 ar
    28   14   37 1
    29   15   16 ar
    30   15   38 1
    31   16   21 ar
    32   16   17 ar
    33   17   18 ar
    34   17   39 1
    35   18   19 ar
    36   18   23 1
    37   19   20 ar
    38   19   40 1
    39   20   21 ar
    40   20   41 1
    41   21   22 ar
    42   22   42 1
    43   23   24 1
    44   24   43 1
    45   24   44 1
    46   24   45 1
@<TRIPOS>MOLECULE
ZINC45799762
   47    48     0     0     0
SMALL
USER_CHARGES

@<TRIPOS>ATOM
      1 C1          1.4537    0.4295   -1.5840 C.3       1 <0>         0.1047
      2 N1          0.6868   -0.4981   -0.7488 N.am      1 <0>        -0.7464
      3 C2          1.2984   -1.1739    0.2441 C.2       1 <0>         0.7012
      4 O1          2.4865   -1.0136    0.4466 O.2       1 <0>        -0.5715
      5 N2          0.5929   -2.0274    1.0124 N.am      1 <0>        -0.6856
      6 C3          1.2458   -2.8018    1.9806 C.ar      1 <0>         0.1462
      7 C4          0.8112   -4.0939    2.2449 C.ar      1 <0>        -0.1277
      8 C5          1.4546   -4.8571    3.1985 C.ar      1 <0>        -0.1002
      9 C6          2.5367   -4.3325    3.8935 C.ar      1 <0>         0.1286
     10 C7          2.9712   -3.0401    3.6290 C.ar      1 <0>        -0.1252
     11 C8          2.3309   -2.2791    2.6717 C.ar      1 <0>        -0.1002
     12 N3          3.1889   -5.1062    4.8608 N.am      1 <0>        -0.6686
     13 C9          3.3174   -6.4363    4.6855 C.2       1 <0>         0.5502
     14 O2          2.7940   -6.9776    3.7289 O.2       1 <0>        -0.5254
     15 C10         4.0853   -7.2292    5.6443 C.2       1 <0>        -0.2246
     16 C11         4.2140   -8.5618    5.4687 C.2       1 <0>         0.0075
     17 C12         4.9858   -9.3586    6.4323 C.ar      1 <0>        -0.0733
     18 C13         5.5841   -8.7414    7.5364 C.ar      1 <0>        -0.0946
     19 C14         6.3083   -9.4980    8.4380 C.ar      1 <0>         0.0902
     20 C15         6.4436  -10.8687    8.2510 C.ar      1 <0>        -0.1512
     21 C16         5.8566  -11.4867    7.1643 C.ar      1 <0>        -0.1719
     22 C17         5.1221  -10.7440    6.2536 C.ar      1 <0>         0.1219
     23 O3          4.5409  -11.3538    5.1889 O.3       1 <0>        -0.3089
     24 C18         4.7221  -12.7664    5.0717 C.3       1 <0>         0.0252
     25 O4          6.8908   -8.8996    9.5112 O.3       1 <0>        -0.3162
     26 C19         7.6248   -9.7404   10.4036 C.3       1 <0>         0.0264
     27 H1          2.2540   -0.1121   -2.0882 H         1 <0>         0.0608
     28 H2          0.7949    0.8789   -2.3271 H         1 <0>         0.0782
     29 H3          1.8827    1.2121   -0.9582 H         1 <0>         0.0608
     30 H4         -0.2610   -0.6260   -0.9104 H         1 <0>         0.3995
     31 H5         -0.3668   -2.1055    0.8952 H         1 <0>         0.4068
     32 H6         -0.0304   -4.5016    1.7047 H         1 <0>         0.1283
     33 H7          1.1164   -5.8619    3.4042 H         1 <0>         0.1437
     34 H8          3.8124   -2.6320    4.1696 H         1 <0>         0.1292
     35 H9          2.6714   -1.2756    2.4631 H         1 <0>         0.1444
     36 H10         3.5484   -4.6850    5.6571 H         1 <0>         0.4120
     37 H11         4.5496   -6.7490    6.4930 H         1 <0>         0.1329
     38 H12         3.7497   -9.0419    4.6200 H         1 <0>         0.1443
     39 H13         5.4806   -7.6765    7.6834 H         1 <0>         0.1444
     40 H14         7.0113  -11.4537    8.9594 H         1 <0>         0.1348
     41 H15         5.9668  -12.5521    7.0262 H         1 <0>         0.1368
     42 H16         4.2080  -13.1259    4.1803 H         1 <0>         0.1043
     43 H17         5.7858  -12.9909    4.9931 H         1 <0>         0.0573
     44 H18         4.3107  -13.2598    5.9523 H         1 <0>         0.0573
     45 H19         8.0365   -9.1385   11.2138 H         1 <0>         0.1023
     46 H20         6.9606  -10.4996   10.8164 H         1 <0>         0.0556
     47 H21         8.4372  -10.2242    9.8614 H         1 <0>         0.0556
@<TRIPOS>BOND
     1    1    2 1
     2    1   27 1
     3    1   28 1
     4    1   29 1
     5    2    3 am
     6    2   30 1
     7    3    4 2
     8    3    5 am
     9    5    6 1
    10    5   31 1
    11    6   11 ar
    12    6    7 ar
    13    7    8 ar
    14    7   32 1
    15    8    9 ar
    16    8   33 1
    17    9   10 ar
    18    9   12 1
    19   10   11 ar
    20   10   34 1
    21   11   35 1
    22   12   13 am
    23   12   36 1
    24   13   14 2
    25   13   15 1
    26   15   16 2
    27   15   37 1
    28   16   17 1
    29   16   38 1
    30   17   22 ar
    31   17   18 ar
    32   18   19 ar
    33   18   39 1
    34   19   20 ar
    35   19   25 1
    36   20   21 ar
    37   20   40 1
    38   21   22 ar
    39   21   41 1
    40   22   23 1
    41   23   24 1
    42   24   42 1
    43   24   43 1
    44   24   44 1
    45   25   26 1
    46   26   45 1
    47   26   46 1
    48   26   47 1
@<TRIPOS>MOLECULE
ZINC56157705
   48    50     0     0     0
SMALL
USER_CHARGES

@<TRIPOS>ATOM
      1 C1         -0.5252    1.2589   -0.3384 C.3       1 <0>        -0.1676
      2 C2         -0.4465   -0.2686   -0.3780 C.3       1 <0>         0.1371
      3 H1          0.0430   -0.6307    0.5260 H         1 <0>         0.1096
      4 C3         -1.8380   -0.8414   -0.4597 C.2       1 <0>         0.5104
      5 O1         -2.1551   -1.5316   -1.4053 O.2       1 <0>        -0.5125
      6 N1         -2.7300   -0.5866    0.5179 N.am      1 <0>        -0.6660
      7 C4         -4.0501   -1.0403    0.3973 C.ar      1 <0>         0.1015
      8 C5         -5.0962   -0.2726    0.8914 C.ar      1 <0>        -0.1005
      9 C6         -6.3971   -0.7201    0.7718 C.ar      1 <0>        -0.1340
     10 C7         -6.6589   -1.9365    0.1586 C.ar      1 <0>         0.1168
     11 C8         -5.6142   -2.7043   -0.3349 C.ar      1 <0>        -0.1903
     12 C9         -4.3133   -2.2551   -0.2214 C.ar      1 <0>        -0.0774
     13 O2         -7.9400   -2.3768    0.0416 O.3       1 <0>        -0.3173
     14 C10        -8.1364   -3.6380   -0.6009 C.3       1 <0>         0.0261
     15 N2          0.3238   -0.6875   -1.5517 N.pl3     1 <0>        -0.7278
     16 C11         1.7175   -0.7509   -1.4861 C.ar      1 <0>         0.2467
     17 C12         2.3742   -0.4223   -0.3061 C.ar      1 <0>        -0.2269
     18 C13         3.7525   -0.4853   -0.2405 C.ar      1 <0>        -0.0430
     19 C14         4.4827   -0.8746   -1.3472 C.ar      1 <0>        -0.2163
     20 C15         3.8326   -1.2039   -2.5297 C.ar      1 <0>         0.2343
     21 C16         2.4478   -1.1476   -2.5973 C.ar      1 <0>        -0.2277
     22 N3          4.5731   -1.5975   -3.6500 N.am      1 <0>        -0.5698
     23 C17         6.0264   -1.8207   -3.6753 C.3       1 <0>         0.0857
     24 C18         6.3115   -2.2316   -5.1329 C.3       1 <0>         0.0910
     25 N4          4.9887   -2.1962   -5.7741 N.am      1 <0>        -0.7369
     26 C19         4.0700   -1.8363   -4.8682 C.2       1 <0>         0.6987
     27 O3          2.8870   -1.7319   -5.1290 O.2       1 <0>        -0.5633
     28 H2          0.4812    1.6732   -0.2793 H         1 <0>         0.0782
     29 H3         -1.0148    1.6211   -1.2424 H         1 <0>         0.0672
     30 H4         -1.0983    1.5706    0.5349 H         1 <0>         0.0701
     31 H5         -2.4581   -0.0892    1.3050 H         1 <0>         0.4123
     32 H6         -4.8925    0.6742    1.3695 H         1 <0>         0.1341
     33 H7         -7.2109   -0.1230    1.1561 H         1 <0>         0.1364
     34 H8         -5.8186   -3.6516   -0.8115 H         1 <0>         0.1320
     35 H9         -3.5004   -2.8506   -0.6100 H         1 <0>         0.1414
     36 H10        -7.7485   -3.5918   -1.6185 H         1 <0>         0.0564
     37 H11        -7.6095   -4.4143   -0.0461 H         1 <0>         0.0562
     38 H12        -9.2011   -3.8700   -0.6281 H         1 <0>         0.1015
     39 H13        -0.1342   -0.9208   -2.3743 H         1 <0>         0.4114
     40 H14         1.8063   -0.1171    0.5603 H         1 <0>         0.1208
     41 H15         4.2605   -0.2295    0.6775 H         1 <0>         0.1262
     42 H16         5.5603   -0.9225   -1.2928 H         1 <0>         0.1207
     43 H17         1.9398   -1.4078   -3.5142 H         1 <0>         0.1570
     44 H18         6.5589   -0.9031   -3.4253 H         1 <0>         0.0928
     45 H19         6.3022   -2.6229   -2.9907 H         1 <0>         0.0927
     46 H20         6.9856   -1.5180   -5.6067 H         1 <0>         0.0891
     47 H21         6.7289   -3.2377   -5.1721 H         1 <0>         0.0888
     48 H22         4.8092   -2.4045   -6.7044 H         1 <0>         0.4342
@<TRIPOS>BOND
     1    1    2 1
     2    1   28 1
     3    1   29 1
     4    1   30 1
     5    2    3 1
     6    2    4 1
     7    2   15 1
     8    4    5 2
     9    4    6 am
    10    6    7 1
    11    6   31 1
    12    7   12 ar
    13    7    8 ar
    14    8    9 ar
    15    8   32 1
    16    9   10 ar
    17    9   33 1
    18   10   11 ar
    19   10   13 1
    20   11   12 ar
    21   11   34 1
    22   12   35 1
    23   13   14 1
    24   14   36 1
    25   14   37 1
    26   14   38 1
    27   15   16 1
    28   15   39 1
    29   16   21 ar
    30   16   17 ar
    31   17   18 ar
    32   17   40 1
    33   18   19 ar
    34   18   41 1
    35   19   20 ar
    36   19   42 1
    37   20   21 ar
    38   20   22 1
    39   21   43 1
    40   22   26 am
    41   22   23 1
    42   23   24 1
    43   23   44 1
    44   23   45 1
    45   24   25 1
    46   24   46 1
    47   24   47 1
    48   25   26 am
    49   25   48 1
    50   26   27 2
@<TRIPOS>MOLECULE
ZINC64883459
   47    48     0     0     0
SMALL
USER_CHARGES

@<TRIPOS>ATOM
      1 C1         -0.5923    1.7502   -0.4949 C.3       1 <0>        -0.1535
      2 C2         -0.7922    0.2384   -0.6192 C.3       1 <0>        -0.1220
      3 C3          0.0368   -0.2910   -1.7910 C.3       1 <0>        -0.1332
      4 C4         -0.1631   -1.8028   -1.9153 C.3       1 <0>         0.1334
      5 N1          0.6307   -2.3098   -3.0374 N.am      1 <0>        -0.7443
      6 C5          0.6105   -3.6234   -3.3380 C.2       1 <0>         0.7131
      7 O1         -0.0666   -4.3878   -2.6780 O.2       1 <0>        -0.5676
      8 N2          1.3408   -4.0899   -4.3703 N.am      1 <0>        -0.5283
      9 N3          2.1210   -3.2091   -5.1308 N.am      1 <0>        -0.5284
     10 C6          2.8513   -3.6755   -6.1631 C.2       1 <0>         0.6034
     11 O2          2.8330   -4.8608   -6.4343 O.2       1 <0>        -0.5307
     12 C7          3.6722   -2.7489   -6.9633 C.2       1 <0>        -0.2891
     13 C8          3.7982   -1.3553   -6.7655 C.2       1 <0>         0.0883
     14 N4          4.6115   -0.8896   -7.6734 N.2       1 <0>        -0.2792
     15 N5          5.0392   -1.9467   -8.4844 N.pl3     1 <0>        -0.3106
     16 C9          4.4667   -3.0810   -8.0427 C.2       1 <0>         0.1828
     17 C10         4.6553   -4.4597   -8.6212 C.3       1 <0>        -0.0795
     18 C11         3.5256   -4.7573   -9.6092 C.3       1 <0>        -0.1399
     19 C12         5.9201   -1.8421   -9.5702 C.ar      1 <0>         0.1267
     20 C13         6.9492   -2.7617   -9.7214 C.ar      1 <0>        -0.0914
     21 C14         7.8159   -2.6571  -10.7915 C.ar      1 <0>        -0.1335
     22 C15         7.6589   -1.6357  -11.7135 C.ar      1 <0>         0.1115
     23 C16         6.6332   -0.7173  -11.5642 C.ar      1 <0>        -0.1360
     24 C17         5.7608   -0.8223  -10.4988 C.ar      1 <0>        -0.0694
     25 F1          8.5077   -1.5349  -12.7598 F         1 <0>        -0.1298
     26 H1          0.4621    1.9641   -0.3200 H         1 <0>         0.0547
     27 H2         -0.9136    2.2361   -1.4162 H         1 <0>         0.0547
     28 H3         -1.1829    2.1274    0.3399 H         1 <0>         0.0571
     29 H4         -0.4709   -0.2475    0.3021 H         1 <0>         0.0666
     30 H5         -1.8466    0.0246   -0.7942 H         1 <0>         0.0666
     31 H6         -0.2845    0.1949   -2.7123 H         1 <0>         0.0702
     32 H7          1.0912   -0.0772   -1.6161 H         1 <0>         0.0702
     33 H8          0.1582   -2.2888   -0.9941 H         1 <0>         0.0713
     34 H9         -1.2175   -2.0167   -2.0903 H         1 <0>         0.0713
     35 H10         1.1709   -1.7000   -3.5640 H         1 <0>         0.3905
     36 H11         1.3262   -5.0353   -4.5866 H         1 <0>         0.4447
     37 H12         2.1356   -2.2637   -4.9145 H         1 <0>         0.4171
     38 H13         3.3069   -0.7767   -5.9972 H         1 <0>         0.1951
     39 H14         5.6132   -4.5085   -9.1390 H         1 <0>         0.0829
     40 H15         4.6387   -5.1962   -7.8178 H         1 <0>         0.1139
     41 H16         2.5646   -4.6361   -9.1094 H         1 <0>         0.0657
     42 H17         3.5874   -4.0668  -10.4503 H         1 <0>         0.0516
     43 H18         3.6202   -5.7809   -9.9717 H         1 <0>         0.0717
     44 H19         7.0722   -3.5581   -9.0024 H         1 <0>         0.1456
     45 H20         8.6168   -3.3720  -10.9092 H         1 <0>         0.1507
     46 H21         6.5128    0.0790  -12.2838 H         1 <0>         0.1496
     47 H22         4.9579   -0.1089  -10.3854 H         1 <0>         0.1452
@<TRIPOS>BOND
     1    1    2 1
     2    1   26 1
     3    1   27 1
     4    1   28 1
     5    2    3 1
     6    2   29 1
     7    2   30 1
     8    3    4 1
     9    3   31 1
    10    3   32 1
    11    4    5 1
    12    4   33 1
    13    4   34 1
    14    5    6 am
    15    5   35 1
    16    6    7 2
    17    6    8 am
    18    8    9 1
    19    8   36 1
    20    9   10 am
    21    9   37 1
    22   10   11 2
    23   10   12 1
    24   12   16 2
    25   12   13 1
    26   13   14 2
    27   13   38 1
    28   14   15 1
    29   15   16 1
    30   15   19 1
    31   16   17 1
    32   17   18 1
    33   17   39 1
    34   17   40 1
    35   18   41 1
    36   18   42 1
    37   18   43 1
    38   19   24 ar
    39   19   20 ar
    40   20   21 ar
    41   20   44 1
    42   21   22 ar
    43   21   45 1
    44   22   23 ar
    45   22   25 1
    46   23   24 ar
    47   23   46 1
    48   24   47 1
@<TRIPOS>MOLECULE
ZINC67461765
   51    53     0     0     0
SMALL
USER_CHARGES

@<TRIPOS>ATOM
      1 C1         -0.0184    1.5028    0.0103 C.3       1 <0>        -0.1147
      2 C2          0.0021   -0.0041    0.0020 C.ar      1 <0>        -0.1461
      3 C3          0.0058   -0.6929   -1.2042 C.ar      1 <0>         0.2275
      4 C4          0.0246   -2.0818   -1.2075 C.ar      1 <0>        -0.1871
      5 C5          0.0396   -2.7741   -0.0123 C.ar      1 <0>        -0.0578
      6 C6          0.0354   -2.0865    1.1870 C.ar      1 <0>        -0.1580
      7 C7          0.0229   -0.7023    1.1944 C.ar      1 <0>         0.0142
      8 Cl1         0.0261    0.1570    2.7028 Cl        1 <0>        -0.0603
      9 N1         -0.0099    0.0096   -2.4113 N.pl3     1 <0>        -0.5474
     10 N2         -0.0061   -0.6866   -3.6271 N.am      1 <0>        -0.5317
     11 C8         -0.0212   -0.0087   -4.7919 C.2       1 <0>         0.7142
     12 O1         -0.0180   -0.6129   -5.8470 O.2       1 <0>        -0.5702
     13 N3         -0.0399    1.3389   -4.7871 N.am      1 <0>        -0.7434
     14 C9         -0.0563    2.0758   -6.0532 C.3       1 <0>         0.1369
     15 C10        -0.0758    3.5789   -5.7683 C.3       1 <0>        -0.1277
     16 C11        -0.0929    4.3484   -7.0905 C.3       1 <0>        -0.0274
     17 C12        -0.1121    5.8289   -6.8099 C.2       1 <0>         0.1716
     18 N4         -1.1733    6.5757   -6.6546 N.2       1 <0>        -0.2893
     19 N5         -0.8182    7.7911   -6.4206 N.2       1 <0>        -0.2920
     20 C13         0.4818    7.8714   -6.4129 C.2       1 <0>         0.1815
     21 N6          0.9648    6.6325   -6.6657 N.pl3     1 <0>        -0.4656
     22 C14         2.3734    6.2528   -6.7770 C.3       1 <0>         0.1020
     23 C15         3.2230    7.1949   -5.9195 C.3       1 <0>        -0.1409
     24 C16         3.6429    8.4079   -6.7484 C.3       1 <0>        -0.1257
     25 C17         2.4168    9.1860   -7.2162 C.3       1 <0>        -0.1247
     26 C18         1.3170    9.0998   -6.1606 C.3       1 <0>        -0.0379
     27 H1          1.0042    1.8801    0.0026 H         1 <0>         0.0752
     28 H2         -0.5455    1.8639   -0.8728 H         1 <0>         0.0594
     29 H3         -0.5286    1.8543    0.9071 H         1 <0>         0.0808
     30 H4          0.0271   -2.6200   -2.1439 H         1 <0>         0.1248
     31 H5          0.0542   -3.8540   -0.0148 H         1 <0>         0.1359
     32 H6          0.0464   -2.6304    2.1200 H         1 <0>         0.1342
     33 H7         -0.0233    0.9795   -2.4079 H         1 <0>         0.4218
     34 H8          0.0073   -1.6565   -3.6305 H         1 <0>         0.4350
     35 H9         -0.0425    1.8209   -3.9453 H         1 <0>         0.3918
     36 H10         0.8344    1.8268   -6.6300 H         1 <0>         0.0736
     37 H11        -0.9454    1.8021   -6.6213 H         1 <0>         0.0773
     38 H12        -0.9665    3.8278   -5.1914 H         1 <0>         0.0818
     39 H13         0.8132    3.8525   -5.2001 H         1 <0>         0.0691
     40 H14         0.7978    4.0995   -7.6674 H         1 <0>         0.0870
     41 H15        -0.9820    4.0748   -7.6587 H         1 <0>         0.1068
     42 H16         2.5024    5.2282   -6.4283 H         1 <0>         0.0959
     43 H17         2.6884    6.3253   -7.8180 H         1 <0>         0.0911
     44 H18         2.6408    7.5270   -5.0599 H         1 <0>         0.0812
     45 H19         4.1116    6.6674   -5.5728 H         1 <0>         0.0897
     46 H20         4.2715    9.0587   -6.1406 H         1 <0>         0.0751
     47 H21         4.2085    8.0715   -7.6173 H         1 <0>         0.0709
     48 H22         2.6876   10.2301   -7.3732 H         1 <0>         0.0827
     49 H23         2.0525    8.7613   -8.1516 H         1 <0>         0.0645
     50 H24         0.6856    9.9868   -6.2117 H         1 <0>         0.1019
     51 H25         1.7747    9.0330   -5.1736 H         1 <0>         0.0925
@<TRIPOS>BOND
     1    1    2 1
     2    1   27 1
     3    1   28 1
     4    1   29 1
     5    2    7 ar
     6    2    3 ar
     7    3    4 ar
     8    3    9 1
     9    4    5 ar
    10    4   30 1
    11    5    6 ar
    12    5   31 1
    13    6    7 ar
    14    6   32 1
    15    7    8 1
    16    9   10 1
    17    9   33 1
    18   10   11 am
    19   10   34 1
    20   11   12 2
    21   11   13 am
    22   13   14 1
    23   13   35 1
    24   14   15 1
    25   14   36 1
    26   14   37 1
    27   15   16 1
    28   15   38 1
    29   15   39 1
    30   16   17 1
    31   16   40 1
    32   16   41 1
    33   17   21 1
    34   17   18 2
    35   18   19 1
    36   19   20 2
    37   20   26 1
    38   20   21 1
    39   21   22 1
    40   22   23 1
    41   22   42 1
    42   22   43 1
    43   23   24 1
    44   23   44 1
    45   23   45 1
    46   24   25 1
    47   24   46 1
    48   24   47 1
    49   25   26 1
    50   25   48 1
    51   25   49 1
    52   26   50 1
    53   26   51 1
@<TRIPOS>MOLECULE
ZINC05505015
   48    50     0     0     0
SMALL
USER_CHARGES
4-[2-(difluoromethoxy)phenyl]-N-(2-methoxyphenyl)-6-methyl-2-oxo-3,4-dihydro-1H-pyrimidine-5-carboxamide
@<TRIPOS>ATOM
      1 C1         -2.9569    3.6824    7.2110 C.3       1 <0>        -0.1343
      2 C2         -3.2029    2.2388    6.8552 C.2       1 <0>         0.1981
      3 C3         -2.7298    1.7529    5.6887 C.2       1 <0>        -0.2730
      4 C4         -3.0045    0.2979    5.3673 C.3       1 <0>         0.2510
      5 H1         -2.0463   -0.1998    5.2176 H         1 <0>         0.0970
      6 N1         -3.7609   -0.4751    6.3667 N.am      1 <0>        -0.7120
      7 C5         -4.1686    0.1516    7.4881 C.2       1 <0>         0.7076
      8 O1         -4.7984   -0.4762    8.3168 O.2       1 <0>        -0.5657
      9 N2         -3.9020    1.4433    7.7191 N.am      1 <0>        -0.6506
     10 C6         -3.7587    0.2445    4.0637 C.ar      1 <0>        -0.1315
     11 C7         -5.1385    0.1733    4.0657 C.ar      1 <0>        -0.0701
     12 C8         -5.8311    0.1286    2.8701 C.ar      1 <0>        -0.1408
     13 C9         -5.1448    0.1454    1.6696 C.ar      1 <0>        -0.0751
     14 C10        -3.7652    0.2112    1.6624 C.ar      1 <0>        -0.1876
     15 C11        -3.0679    0.2609    2.8610 C.ar      1 <0>         0.1225
     16 O2         -1.7105    0.3262    2.8565 O.3       1 <0>        -0.3114
     17 C12        -1.0636    0.2924    1.5828 C.3       1 <0>         0.4111
     18 F1         -1.3236   -0.9331    0.9600 F         1 <0>        -0.1976
     19 F2         -1.5501    1.3335    0.7849 F         1 <0>        -0.1928
     20 C13        -2.0058    2.5769    4.7920 C.2       1 <0>         0.6027
     21 O3         -0.7897    2.5236    4.7631 O.2       1 <0>        -0.5086
     22 N3         -2.6632    3.4197    3.9711 N.am      1 <0>        -0.6525
     23 C14        -1.9472    4.3229    3.1753 C.ar      1 <0>         0.1216
     24 C15        -0.6639    4.0102    2.7508 C.ar      1 <0>        -0.0925
     25 C16         0.0427    4.9054    1.9703 C.ar      1 <0>        -0.1363
     26 C17        -0.5283    6.1108    1.6057 C.ar      1 <0>        -0.0969
     27 C18        -1.8086    6.4272    2.0206 C.ar      1 <0>        -0.1894
     28 C19        -2.5238    5.5353    2.8031 C.ar      1 <0>         0.0981
     29 O4         -3.7833    5.8448    3.2115 O.3       1 <0>        -0.3204
     30 C20        -4.3553    7.0484    2.6954 C.3       1 <0>         0.0291
     31 H2         -3.7987    4.2880    6.8752 H         1 <0>         0.0948
     32 H3         -2.8494    3.7770    8.2916 H         1 <0>         0.0865
     33 H4         -2.0446    4.0264    6.7236 H         1 <0>         0.0901
     34 H5         -3.9647   -1.4120    6.2195 H         1 <0>         0.4334
     35 H6         -4.2232    1.8365    8.5456 H         1 <0>         0.4272
     36 H7         -5.6766    0.1563    5.0019 H         1 <0>         0.1293
     37 H8         -6.9099    0.0764    2.8736 H         1 <0>         0.1290
     38 H9         -5.6881    0.1066    0.7370 H         1 <0>         0.1301
     39 H10        -3.2297    0.2242    0.7246 H         1 <0>         0.1368
     40 H11         0.0116    0.4103    1.7181 H         1 <0>         0.1811
     41 H12        -3.6322    3.4008    3.9313 H         1 <0>         0.4131
     42 H13        -0.2157    3.0691    3.0335 H         1 <0>         0.1542
     43 H14         1.0433    4.6628    1.6442 H         1 <0>         0.1267
     44 H15         0.0275    6.8073    0.9954 H         1 <0>         0.1251
     45 H16        -2.2515    7.3697    1.7343 H         1 <0>         0.1305
     46 H17        -5.3872    7.1351    3.0354 H         1 <0>         0.1001
     47 H18        -4.3326    7.0233    1.6059 H         1 <0>         0.0563
     48 H19        -3.7823    7.9046    3.0512 H         1 <0>         0.0560
@<TRIPOS>BOND
     1    1    2 1
     2    1   31 1
     3    1   32 1
     4    1   33 1
     5    2    9 1
     6    2    3 2
     7    3    4 1
     8    3   20 1
     9    4    5 1
    10    4    6 1
    11    4   10 1
    12    6    7 am
    13    6   34 1
    14    7    8 2
    15    7    9 am
    16    9   35 1
    17   10   15 ar
    18   10   11 ar
    19   11   12 ar
    20   11   36 1
    21   12   13 ar
    22   12   37 1
    23   13   14 ar
    24   13   38 1
    25   14   15 ar
    26   14   39 1
    27   15   16 1
    28   16   17 1
    29   17   18 1
    30   17   19 1
    31   17   40 1
    32   20   21 2
    33   20   22 am
    34   22   23 1
    35   22   41 1
    36   23   28 ar
    37   23   24 ar
    38   24   25 ar
    39   24   42 1
    40   25   26 ar
    41   25   43 1
    42   26   27 ar
    43   26   44 1
    44   27   28 ar
    45   27   45 1
    46   28   29 1
    47   29   30 1
    48   30   46 1
    49   30   47 1
    50   30   48 1
@<TRIPOS>MOLECULE
ZINC21082967
   41    43     0     0     0
SMALL
USER_CHARGES
N-(2-fluorophenyl)-2-[[5-[(N'E)-N'-[1-(2-thienyl)ethylidene]hydrazino]-4H-1,2,4-triazol-3-yl]sulfanyl]acetamide
@<TRIPOS>ATOM
      1 C1         -5.0188    0.3298   -0.0685 C.3       1 <0>        -0.1612
      2 C2         -4.7261    1.8081   -0.0594 C.2       1 <0>         0.1912
      3 N1         -3.4945    2.2274   -0.0519 N.2       1 <0>        -0.2467
      4 N2         -2.4404    1.3045   -0.0523 N.pl3     1 <0>        -0.5533
      5 C3         -1.1276    1.7515   -0.0443 C.2       1 <0>         0.5415
      6 N3         -0.0102    0.9633   -0.0437 N.2       1 <0>        -0.5502
      7 C4          1.0837    1.7817   -0.0406 C.2       1 <0>         0.2094
      8 N4          0.6611    3.0234   -0.0336 N.2       1 <0>        -0.3275
      9 N5         -0.7398    3.0040   -0.0321 N.pl3     1 <0>        -0.4751
     10 S1          2.7669    1.2607   -0.0447 S.3       1 <0>         0.1173
     11 C5          3.7066    2.8123   -0.0379 C.3       1 <0>        -0.1641
     12 C6          5.1821    2.5059   -0.0407 C.2       1 <0>         0.5420
     13 O1          5.5624    1.3542   -0.0468 O.2       1 <0>        -0.5033
     14 N6          6.0792    3.5118   -0.0366 N.am      1 <0>        -0.6785
     15 C7          7.4478    3.2291    0.0549 C.ar      1 <0>         0.1183
     16 C8          7.9645    2.0898   -0.5467 C.ar      1 <0>        -0.0969
     17 C9          9.3159    1.8165   -0.4597 C.ar      1 <0>        -0.1093
     18 C10        10.1529    2.6699    0.2355 C.ar      1 <0>        -0.1047
     19 C11         9.6422    3.8029    0.8413 C.ar      1 <0>        -0.1360
     20 C12         8.2912    4.0859    0.7535 C.ar      1 <0>         0.0720
     21 F1          7.7918    5.1927    1.3457 F         1 <0>        -0.1374
     22 C13        -5.8299    2.7744   -0.0589 C.2       1 <0>        -0.1325
     23 C14        -5.7789    4.1573   -0.0513 C.2       1 <0>        -0.1057
     24 C15        -6.9652    4.8551   -0.0531 C.2       1 <0>        -0.1646
     25 C16        -8.1385    4.1716   -0.0622 C.2       1 <0>        -0.1587
     26 S2         -7.5896    2.4732   -0.0760 S.3       1 <0>         0.0983
     27 H1         -6.1074    0.1716   -0.0740 H         1 <0>         0.0890
     28 H2         -4.5852   -0.1353    0.8291 H         1 <0>         0.0905
     29 H3         -4.5775   -0.1258   -0.9672 H         1 <0>         0.0905
     30 H4         -2.6541    0.2255   -0.0590 H         1 <0>         0.4396
     31 H5          3.4522    3.3989   -0.9330 H         1 <0>         0.1282
     32 H6          3.4538    3.3902    0.8633 H         1 <0>         0.1282
     33 H7          5.7364    4.5548   -0.1051 H         1 <0>         0.4424
     34 H8          7.3113    1.4200   -1.0862 H         1 <0>         0.1501
     35 H9          9.7184    0.9322   -0.9313 H         1 <0>         0.1348
     36 H10        11.2081    2.4506    0.3056 H         1 <0>         0.1352
     37 H11        10.2985    4.4672    1.3838 H         1 <0>         0.1398
     38 H12        -4.8317    4.6760   -0.0438 H         1 <0>         0.1402
     39 H13        -6.9629    5.9351   -0.0477 H         1 <0>         0.1403
     40 H14        -9.1472    4.5576   -0.0652 H         1 <0>         0.1922
     41 H15        -1.4871    3.8111   -0.0230 H         1 <0>         0.4747
@<TRIPOS>BOND
     1    1    2 1
     2    1   27 1
     3    1   28 1
     4    1   29 1
     5    2    3 2
     6    2   22 1
     7    3    4 1
     8    4    5 1
     9    4   30 1
    10    5    9 1
    11    5    6 2
    12    6    7 1
    13    7    8 2
    14    7   10 1
    15    8    9 1
    16    9   41 1
    17   10   11 1
    18   11   12 1
    19   11   31 1
    20   11   32 1
    21   12   13 2
    22   12   14 am
    23   14   15 1
    24   14   33 1
    25   15   20 ar
    26   15   16 ar
    27   16   17 ar
    28   16   34 1
    29   17   18 ar
    30   17   35 1
    31   18   19 ar
    32   18   36 1
    33   19   20 ar
    34   19   37 1
    35   20   21 1
    36   22   26 1
    37   22   23 2
    38   23   24 1
    39   23   38 1
    40   24   25 2
    41   24   39 1
    42   25   26 1
    43   25   40 1
@<TRIPOS>MOLECULE
ZINC49779069
   52    53     0     0     0
SMALL
USER_CHARGES

@<TRIPOS>ATOM
      1 C1         -0.0184    1.5028    0.0103 C.3       1 <0>        -0.1170
      2 C2          0.0021   -0.0041    0.0020 C.ar      1 <0>        -0.0527
      3 C3          0.0057   -0.6883   -1.1997 C.ar      1 <0>        -0.1502
      4 C4          0.0244   -2.0706   -1.2107 C.ar      1 <0>        -0.0783
      5 C5          0.0391   -2.7719   -0.0203 C.ar      1 <0>        -0.1133
      6 C6          0.0355   -2.0879    1.1864 C.ar      1 <0>         0.1272
      7 C7          0.0229   -0.7004    1.1947 C.ar      1 <0>        -0.2073
      8 O1          0.0500   -2.7755    2.3585 O.3       1 <0>        -0.2846
      9 C8          0.0452   -2.0055    3.5624 C.3       1 <0>         0.0520
     10 C9          0.0629   -2.9317    4.7511 C.2       1 <0>         0.5180
     11 O2          0.0781   -4.1328    4.5838 O.2       1 <0>        -0.5005
     12 N1          0.0619   -2.4252    6.0000 N.am      1 <0>        -0.5285
     13 N2          0.0783   -3.2862    7.1051 N.am      1 <0>        -0.5281
     14 C10         0.0773   -2.7797    8.3541 C.2       1 <0>         0.7164
     15 O3          0.0916   -3.5270    9.3131 O.2       1 <0>        -0.5608
     16 N3          0.0604   -1.4450    8.5400 N.am      1 <0>        -0.7392
     17 C11         0.0592   -0.8944    9.8976 C.3       1 <0>         0.2103
     18 H1          0.6601   -1.5301   10.5479 H         1 <0>         0.1067
     19 C12        -1.3763   -0.8384   10.4240 C.3       1 <0>        -0.1571
     20 C13         0.6412    0.4955    9.8765 C.ar      1 <0>        -0.1250
     21 C14         0.5909    1.2486    8.7192 C.ar      1 <0>        -0.0823
     22 C15         1.1250    2.5236    8.6991 C.ar      1 <0>        -0.1504
     23 C16         1.7104    3.0486    9.8367 C.ar      1 <0>        -0.0774
     24 C17         1.7627    2.2999   10.9962 C.ar      1 <0>        -0.2014
     25 C18         1.2227    1.0220   11.0205 C.ar      1 <0>         0.1410
     26 O4          1.2679    0.2855   12.1617 O.3       1 <0>        -0.3117
     27 C19         1.8817    0.8916   13.3011 C.3       1 <0>         0.0256
     28 C20         0.0585   -4.2788   -0.0330 C.3       1 <0>        -0.1090
     29 H2          1.0042    1.8801    0.0026 H         1 <0>         0.0732
     30 H3         -0.5455    1.8639   -0.8728 H         1 <0>         0.0697
     31 H4         -0.5286    1.8543    0.9071 H         1 <0>         0.0663
     32 H5         -0.0065   -0.1419   -2.1312 H         1 <0>         0.1251
     33 H6          0.0272   -2.6027   -2.1505 H         1 <0>         0.1314
     34 H7          0.0248   -0.1655    2.1329 H         1 <0>         0.1274
     35 H8          0.9269   -1.3651    3.5876 H         1 <0>         0.1005
     36 H9         -0.8529   -1.3888    3.5957 H         1 <0>         0.1004
     37 H10         0.0497   -1.4646    6.1338 H         1 <0>         0.4190
     38 H11         0.0905   -4.2469    6.9713 H         1 <0>         0.4458
     39 H12         0.0490   -0.8488    7.7749 H         1 <0>         0.3878
     40 H13        -1.9772   -0.2027    9.7736 H         1 <0>         0.0570
     41 H14        -1.7972   -1.8437   10.4392 H         1 <0>         0.0673
     42 H15        -1.3771   -0.4287   11.4341 H         1 <0>         0.0721
     43 H16         0.1343    0.8408    7.8295 H         1 <0>         0.1209
     44 H17         1.0854    3.1104    7.7933 H         1 <0>         0.1273
     45 H18         2.1273    4.0447    9.8183 H         1 <0>         0.1278
     46 H19         2.2200    2.7104   11.8844 H         1 <0>         0.1321
     47 H20         2.9183    1.1355   13.0686 H         1 <0>         0.0570
     48 H21         1.3436    1.8030   13.5618 H         1 <0>         0.0575
     49 H22         1.8512    0.1985   14.1418 H         1 <0>         0.1038
     50 H23         1.0908   -4.6288   -0.0409 H         1 <0>         0.0694
     51 H24        -0.4463   -4.6561    0.8563 H         1 <0>         0.0729
     52 H25        -0.4549   -4.6412   -0.9236 H         1 <0>         0.0657
@<TRIPOS>BOND
     1    1    2 1
     2    1   29 1
     3    1   30 1
     4    1   31 1
     5    2    7 ar
     6    2    3 ar
     7    3    4 ar
     8    3   32 1
     9    4    5 ar
    10    4   33 1
    11    5    6 ar
    12    5   28 1
    13    6    7 ar
    14    6    8 1
    15    7   34 1
    16    8    9 1
    17    9   10 1
    18    9   35 1
    19    9   36 1
    20   10   11 2
    21   10   12 am
    22   12   13 1
    23   12   37 1
    24   13   14 am
    25   13   38 1
    26   14   15 2
    27   14   16 am
    28   16   17 1
    29   16   39 1
    30   17   18 1
    31   17   19 1
    32   17   20 1
    33   19   40 1
    34   19   41 1
    35   19   42 1
    36   20   25 ar
    37   20   21 ar
    38   21   22 ar
    39   21   43 1
    40   22   23 ar
    41   22   44 1
    42   23   24 ar
    43   23   45 1
    44   24   25 ar
    45   24   46 1
    46   25   26 1
    47   26   27 1
    48   27   47 1
    49   27   48 1
    50   27   49 1
    51   28   50 1
    52   28   51 1
    53   28   52 1
@<TRIPOS>MOLECULE
ZINC59830281
   45    47     0     0     0
SMALL
USER_CHARGES

@<TRIPOS>ATOM
      1 C1         -0.0184    1.5028    0.0103 C.3       1 <0>        -0.1551
      2 C2          0.0021   -0.0041    0.0020 C.2       1 <0>         0.1219
      3 N1          0.0216   -0.6592    1.1228 N.2       1 <0>        -0.1757
      4 N2          0.0237    0.0347    2.3398 N.pl3     1 <0>        -0.5524
      5 C3          0.0445   -0.6629    3.5333 C.2       1 <0>         0.5594
      6 N3          0.0693   -1.9729    3.6639 N.2       1 <0>        -0.5153
      7 C4          0.0848   -2.2953    4.9617 C.2       1 <0>         0.2278
      8 N4          0.0700   -1.1942    5.6746 N.2       1 <0>        -0.3215
      9 N5          0.0488   -0.1207    4.7698 N.pl3     1 <0>        -0.5065
     10 S1          0.1194   -3.9337    5.6091 S.3       1 <0>         0.0341
     11 C5          0.1283   -3.6949    7.4073 C.3       1 <0>        -0.0677
     12 C6          0.1579   -5.0370    8.0921 C.ar      1 <0>        -0.1184
     13 C7         -1.0265   -5.6761    8.4094 C.ar      1 <0>        -0.0569
     14 C8         -1.0021   -6.9062    9.0376 C.ar      1 <0>        -0.1516
     15 C9          0.2120   -7.5005    9.3496 C.ar      1 <0>         0.1372
     16 C10         1.3989   -6.8574    9.0297 C.ar      1 <0>        -0.2085
     17 C11         1.3692   -5.6298    8.3969 C.ar      1 <0>        -0.0558
     18 O1          0.2386   -8.7104    9.9680 O.3       1 <0>        -0.3161
     19 C12         1.5243   -9.2622   10.2587 C.3       1 <0>         0.0255
     20 C13        -0.0001   -0.7340   -1.2783 C.ar      1 <0>        -0.0766
     21 C14        -0.0153   -0.0331   -2.4863 C.ar      1 <0>        -0.0793
     22 C15        -0.0173   -0.7223   -3.6809 C.ar      1 <0>        -0.1345
     23 C16        -0.0048   -2.1066   -3.6881 C.ar      1 <0>        -0.0865
     24 C17         0.0103   -2.8117   -2.4992 C.ar      1 <0>        -0.1523
     25 C18         0.0188   -2.1354   -1.2906 C.ar      1 <0>         0.1486
     26 O2          0.0399   -2.8274   -0.1219 O.3       1 <0>        -0.4706
     27 H1          1.0042    1.8801    0.0026 H         1 <0>         0.0877
     28 H2         -0.5455    1.8639   -0.8728 H         1 <0>         0.0914
     29 H3         -0.5286    1.8543    0.9071 H         1 <0>         0.0667
     30 H4          0.0105    1.0046    2.3452 H         1 <0>         0.3973
     31 H5          1.0102   -3.1216    7.6933 H         1 <0>         0.0996
     32 H6         -0.7695   -3.1540    7.7064 H         1 <0>         0.1005
     33 H7         -1.9714   -5.2130    8.1664 H         1 <0>         0.1343
     34 H8         -1.9275   -7.4046    9.2860 H         1 <0>         0.1348
     35 H9          2.3454   -7.3180    9.2716 H         1 <0>         0.1317
     36 H10         2.2930   -5.1308    8.1436 H         1 <0>         0.1297
     37 H11         1.4027  -10.2271   10.7509 H         1 <0>         0.1018
     38 H12         2.0809   -9.3951    9.3310 H         1 <0>         0.0576
     39 H13         2.0700   -8.5853   10.9160 H         1 <0>         0.0568
     40 H14        -0.0259    1.0468   -2.4849 H         1 <0>         0.1324
     41 H15        -0.0291   -0.1798   -4.6147 H         1 <0>         0.1302
     42 H16        -0.0072   -2.6387   -4.6279 H         1 <0>         0.1295
     43 H17         0.0200   -3.8916   -2.5129 H         1 <0>         0.1338
     44 H18        -0.8373   -3.0398    0.2252 H         1 <0>         0.3937
     45 H19         0.0378    0.8240    4.9896 H         1 <0>         0.4374
@<TRIPOS>BOND
     1    1    2 1
     2    1   27 1
     3    1   28 1
     4    1   29 1
     5    2    3 2
     6    2   20 1
     7    3    4 1
     8    4    5 1
     9    4   30 1
    10    5    9 1
    11    5    6 2
    12    6    7 1
    13    7    8 2
    14    7   10 1
    15    8    9 1
    16    9   45 1
    17   10   11 1
    18   11   12 1
    19   11   31 1
    20   11   32 1
    21   12   17 ar
    22   12   13 ar
    23   13   14 ar
    24   13   33 1
    25   14   15 ar
    26   14   34 1
    27   15   16 ar
    28   15   18 1
    29   16   17 ar
    30   16   35 1
    31   17   36 1
    32   18   19 1
    33   19   37 1
    34   19   38 1
    35   19   39 1
    36   20   25 ar
    37   20   21 ar
    38   21   22 ar
    39   21   40 1
    40   22   23 ar
    41   22   41 1
    42   23   24 ar
    43   23   42 1
    44   24   25 ar
    45   24   43 1
    46   25   26 1
    47   26   44 1
@<TRIPOS>MOLECULE
ZINC67391711
   52    55     0     0     0
SMALL
USER_CHARGES

@<TRIPOS>ATOM
      1 C1         -0.0187    1.5258    0.0104 C.3       1 <0>        -0.1427
      2 C2          0.0021   -0.0041    0.0020 C.3       1 <0>        -0.1245
      3 C3          0.7182   -0.4975   -1.2568 C.3       1 <0>         0.2476
      4 H1          1.7103   -0.0491   -1.3098 H         1 <0>         0.1233
      5 C4          0.8473   -1.9981   -1.2057 C.2       1 <0>         0.2783
      6 N1          0.4127   -2.8510   -2.1723 N.pl3     1 <0>        -0.5975
      7 H2         -0.0268   -2.6047   -3.0012 H         1 <0>         0.4186
      8 C5          0.7135   -4.1321   -1.7550 C.ar      1 <0>         0.0487
      9 C6          0.5232   -5.3956   -2.2980 C.ar      1 <0>        -0.1130
     10 C7          0.9526   -6.5079   -1.6061 C.ar      1 <0>        -0.0976
     11 C8          1.5724   -6.3725   -0.3719 C.ar      1 <0>        -0.1262
     12 C9          1.7681   -5.1374    0.1779 C.ar      1 <0>        -0.0614
     13 C10         1.3416   -3.9955   -0.5056 C.ar      1 <0>         0.0485
     14 N2          1.3956   -2.6664   -0.2333 N.2       1 <0>        -0.4751
     15 N3         -0.0549   -0.1139   -2.4405 N.am      1 <0>        -0.7498
     16 C11         0.1070    1.1088   -2.9841 C.2       1 <0>         0.7100
     17 O1          0.8948    1.8933   -2.4920 O.2       1 <0>        -0.5695
     18 N4         -0.6042    1.4617   -4.0731 N.am      1 <0>        -0.7441
     19 C12        -0.4282    2.7907   -4.6639 C.3       1 <0>         0.1449
     20 C13        -1.3460    2.9340   -5.8796 C.3       1 <0>        -0.0822
     21 C14        -1.1649    4.3011   -6.4874 C.ar      1 <0>        -0.0797
     22 C15        -2.0127    5.3323   -6.1323 C.ar      1 <0>        -0.1103
     23 C16        -1.8471    6.5881   -6.6910 C.ar      1 <0>         0.0756
     24 C17        -0.8328    6.8110   -7.6064 C.ar      1 <0>        -0.1087
     25 C18         0.0167    5.7809   -7.9639 C.ar      1 <0>        -0.1724
     26 C19        -0.1429    4.5249   -7.3993 C.ar      1 <0>         0.1320
     27 O2          0.6950    3.5063   -7.7319 O.3       1 <0>        -0.3223
     28 C20         1.4815    3.6763   -8.9145 C.3       1 <0>         0.2199
     29 O3          2.0810    4.9770   -8.8822 O.3       1 <0>        -0.3800
     30 C21         1.1154    6.0340   -8.9650 C.3       1 <0>         0.0996
     31 F1         -2.6761    7.5964   -6.3429 F         1 <0>        -0.1352
     32 H3          1.0039    1.9031    0.0027 H         1 <0>         0.0643
     33 H4         -0.5459    1.8868   -0.8726 H         1 <0>         0.0564
     34 H5         -0.5289    1.8773    0.9072 H         1 <0>         0.0511
     35 H6          0.5293   -0.3651    0.8851 H         1 <0>         0.0888
     36 H7         -1.0205   -0.3814    0.0098 H         1 <0>         0.0640
     37 H8          0.0408   -5.5065   -3.2579 H         1 <0>         0.1235
     38 H9          0.8052   -7.4914   -2.0273 H         1 <0>         0.1320
     39 H10         1.9032   -7.2526    0.1596 H         1 <0>         0.1317
     40 H11         2.2513   -5.0435    1.1392 H         1 <0>         0.1316
     41 H12        -0.6834   -0.7398   -2.8331 H         1 <0>         0.3904
     42 H13        -1.2327    0.8358   -4.4657 H         1 <0>         0.3957
     43 H14        -0.6805    3.5525   -3.9264 H         1 <0>         0.0701
     44 H15         0.6090    2.9155   -4.9750 H         1 <0>         0.0741
     45 H16        -1.0937    2.1721   -6.6172 H         1 <0>         0.0876
     46 H17        -2.3832    2.8092   -5.5686 H         1 <0>         0.0834
     47 H18        -2.8049    5.1588   -5.4191 H         1 <0>         0.1462
     48 H19        -0.7053    7.7909   -8.0421 H         1 <0>         0.1437
     49 H20         2.2608    2.9149   -8.9481 H         1 <0>         0.1453
     50 H21         0.8434    3.5893   -9.7939 H         1 <0>         0.0658
     51 H22         0.6909    6.0763   -9.9681 H         1 <0>         0.0805
     52 H23         1.6051    6.9806   -8.7363 H         1 <0>         0.1191
@<TRIPOS>BOND
     1    1    2 1
     2    1   32 1
     3    1   33 1
     4    1   34 1
     5    2    3 1
     6    2   35 1
     7    2   36 1
     8    3    4 1
     9    3    5 1
    10    3   15 1
    11    5   14 2
    12    5    6 1
    13    6    7 1
    14    6    8 1
    15    8   13 ar
    16    8    9 ar
    17    9   10 ar
    18    9   37 1
    19   10   11 ar
    20   10   38 1
    21   11   12 ar
    22   11   39 1
    23   12   13 ar
    24   12   40 1
    25   13   14 1
    26   15   16 am
    27   15   41 1
    28   16   17 2
    29   16   18 am
    30   18   19 1
    31   18   42 1
    32   19   20 1
    33   19   43 1
    34   19   44 1
    35   20   21 1
    36   20   45 1
    37   20   46 1
    38   21   26 ar
    39   21   22 ar
    40   22   23 ar
    41   22   47 1
    42   23   24 ar
    43   23   31 1
    44   24   25 ar
    45   24   48 1
    46   25   30 1
    47   25   26 ar
    48   26   27 1
    49   27   28 1
    50   28   29 1
    51   28   49 1
    52   28   50 1
    53   29   30 1
    54   30   51 1
    55   30   52 1
@<TRIPOS>MOLECULE
ZINC07059547
   62    65     0     0     0
SMALL
USER_CHARGES
4-amino-N'-[cyclopentylcarbamoyl-(4-methoxyphenyl)-methyl]-N'-(2-furylmethyl)isothiazole-3,5-dicarboxamide
@<TRIPOS>ATOM
      1 C1          0.3113    5.0109    6.2884 C.3       1 <0>         0.0260
      2 O1         -0.5828    5.3405    5.2236 O.3       1 <0>        -0.3153
      3 C2         -0.1660    5.0640    3.9600 C.ar      1 <0>         0.1384
      4 C3         -0.9838    5.3580    2.8786 C.ar      1 <0>        -0.1476
      5 C4         -0.5580    5.0755    1.5951 C.ar      1 <0>        -0.0574
      6 C5          0.6819    4.4999    1.3878 C.ar      1 <0>        -0.1466
      7 C6          1.4965    4.2008    2.4643 C.ar      1 <0>        -0.0546
      8 C7          1.0779    4.4869    3.7493 C.ar      1 <0>        -0.2053
      9 C8          1.1437    4.1924   -0.0133 C.3       1 <0>         0.1854
     10 H1          0.5447    4.7593   -0.7260 H         1 <0>         0.1215
     11 C9          0.9835    2.7184   -0.2829 C.2       1 <0>         0.5083
     12 O2          1.7598    2.1489   -1.0205 O.2       1 <0>        -0.5045
     13 N1         -0.0224    2.0329    0.2957 N.am      1 <0>        -0.7112
     14 C10        -0.1781    0.6000    0.0337 C.3       1 <0>         0.1412
     15 C11        -1.0448    0.3839   -1.2241 C.3       1 <0>        -0.1344
     16 C12        -1.8931   -0.8682   -0.8903 C.3       1 <0>        -0.1251
     17 C13        -2.2155   -0.6722    0.6119 C.3       1 <0>        -0.1249
     18 C14        -0.9224   -0.0715    1.2011 C.3       1 <0>        -0.1318
     19 N2          2.5535    4.5645   -0.1555 N.am      1 <0>        -0.5929
     20 C15         3.5756    3.5238   -0.2924 C.3       1 <0>         0.1883
     21 C16         3.9545    3.3797   -1.7438 C.2       1 <0>        -0.0141
     22 C17         4.8347    4.1507   -2.4073 C.2       1 <0>        -0.2126
     23 C18         4.8838    3.6667   -3.7348 C.2       1 <0>        -0.2169
     24 C19         4.0308    2.6289   -3.8032 C.2       1 <0>        -0.0369
     25 O3          3.4751    2.4560   -2.5928 O.3       1 <0>        -0.1285
     26 C20         2.9103    5.8641   -0.1605 C.2       1 <0>         0.6332
     27 O4          2.0550    6.7300   -0.1763 O.2       1 <0>        -0.5222
     28 C21         4.3269    6.2345   -0.1467 C.2       1 <0>        -0.3983
     29 C22         4.9124    7.4973   -0.2538 C.2       1 <0>         0.2815
     30 C23         6.3052    7.4470   -0.1943 C.2       1 <0>        -0.0393
     31 N3          6.9018    6.2831   -0.0618 N.2       1 <0>        -0.4538
     32 S1          5.7643    5.1941    0.0032 S.3       1 <0>         0.4679
     33 C24         7.1000    8.6855   -0.2860 C.2       1 <0>         0.6020
     34 O5          6.5415    9.7586   -0.4089 O.2       1 <0>        -0.5418
     35 N4          8.4455    8.6281   -0.2336 N.am      1 <0>        -0.8307
     36 N5          4.1886    8.6732   -0.3994 N.pl3     1 <0>        -0.8029
     37 H2          1.2450    5.5588    6.1615 H         1 <0>         0.0566
     38 H3         -0.1427    5.2825    7.2414 H         1 <0>         0.1022
     39 H4          0.5138    3.9400    6.2745 H         1 <0>         0.0569
     40 H5         -1.9527    5.8069    3.0400 H         1 <0>         0.1351
     41 H6         -1.1943    5.3042    0.7530 H         1 <0>         0.1337
     42 H7          2.4626    3.7468    2.3000 H         1 <0>         0.1211
     43 H8          1.7165    4.2575    4.5895 H         1 <0>         0.1303
     44 H9         -0.6456    2.4892    0.8825 H         1 <0>         0.4029
     45 H10         0.7994    0.1370   -0.1015 H         1 <0>         0.0948
     46 H11        -1.6888    1.2463   -1.3963 H         1 <0>         0.0697
     47 H12        -0.4150    0.1972   -2.0939 H         1 <0>         0.0724
     48 H13        -1.3151   -1.7791   -1.0457 H         1 <0>         0.0698
     49 H14        -2.8079   -0.8842   -1.4828 H         1 <0>         0.0692
     50 H15        -2.4400   -1.6296    1.0820 H         1 <0>         0.0689
     51 H16        -3.0486    0.0196    0.7362 H         1 <0>         0.0673
     52 H17        -0.3065   -0.8609    1.6318 H         1 <0>         0.0758
     53 H18        -1.1678    0.6688    1.9626 H         1 <0>         0.0711
     54 H19         4.4561    3.8008    0.2873 H         1 <0>         0.0842
     55 H20         3.1813    2.5767    0.0760 H         1 <0>         0.1317
     56 H21         5.3957    4.9806   -2.0036 H         1 <0>         0.1395
     57 H22         5.4898    4.0559   -4.5397 H         1 <0>         0.1449
     58 H23         3.8307    2.0326   -4.6811 H         1 <0>         0.1998
     59 H24         8.8910    7.7720   -0.1356 H         1 <0>         0.4117
     60 H25         8.9684    9.4428   -0.2940 H         1 <0>         0.4097
     61 H26         3.2196    8.6454   -0.4317 H         1 <0>         0.4169
     62 H27         4.6521    9.5225   -0.4689 H         1 <0>         0.4196
@<TRIPOS>BOND
     1    1    2 1
     2    1   37 1
     3    1   38 1
     4    1   39 1
     5    2    3 1
     6    3    8 ar
     7    3    4 ar
     8    4    5 ar
     9    4   40 1
    10    5    6 ar
    11    5   41 1
    12    6    7 ar
    13    6    9 1
    14    7    8 ar
    15    7   42 1
    16    8   43 1
    17    9   10 1
    18    9   11 1
    19    9   19 1
    20   11   12 2
    21   11   13 am
    22   13   14 1
    23   13   44 1
    24   14   18 1
    25   14   15 1
    26   14   45 1
    27   15   16 1
    28   15   46 1
    29   15   47 1
    30   16   17 1
    31   16   48 1
    32   16   49 1
    33   17   18 1
    34   17   50 1
    35   17   51 1
    36   18   52 1
    37   18   53 1
    38   19   20 1
    39   19   26 am
    40   20   21 1
    41   20   54 1
    42   20   55 1
    43   21   25 1
    44   21   22 2
    45   22   23 1
    46   22   56 1
    47   23   24 2
    48   23   57 1
    49   24   25 1
    50   24   58 1
    51   26   27 2
    52   26   28 1
    53   28   32 1
    54   28   29 2
    55   29   30 1
    56   29   36 1
    57   30   31 2
    58   30   33 1
    59   31   32 1
    60   33   34 2
    61   33   35 am
    62   35   59 1
    63   35   60 1
    64   36   61 1
    65   36   62 1
@<TRIPOS>MOLECULE
ZINC12716016
   59    62     0     0     0
SMALL
USER_CHARGES
4-amino-N'-[(1R)-1-(4-fluorophenyl)-2-oxo-2-[[(2S)-tetrahydrofuran-2-yl]methylamino]ethyl]-N'-(2-thienylmethyl)isothiazole-3,5-dicarboxamide
@<TRIPOS>ATOM
      1 C1          2.2091   -2.1917   -8.7950 C.2       1 <0>        -0.1625
      2 C2          2.6808   -3.2317   -8.0162 C.2       1 <0>        -0.1600
      3 C3          2.3857   -3.2485   -6.6934 C.2       1 <0>        -0.1619
      4 S1          1.4240   -1.7556   -6.5105 S.3       1 <0>         0.1456
      5 C4          1.4742   -1.2139   -8.2108 C.2       1 <0>        -0.2211
      6 C5          2.7743   -4.2612   -5.6472 C.3       1 <0>         0.1831
      7 N1          3.9939   -3.8179   -4.9675 N.am      1 <0>        -0.5952
      8 C6          3.9100   -2.8568   -3.8649 C.3       1 <0>         0.1840
      9 H1          4.5179   -1.9826   -4.0979 H         1 <0>         0.1192
     10 C7          4.4173   -3.4987   -2.5993 C.ar      1 <0>        -0.1042
     11 C8          4.1821   -4.8404   -2.3631 C.ar      1 <0>        -0.0659
     12 C9          4.6510   -5.4312   -1.2051 C.ar      1 <0>        -0.1487
     13 C10         5.3474   -4.6764   -0.2765 C.ar      1 <0>         0.1070
     14 C11         5.5778   -3.3315   -0.5117 C.ar      1 <0>        -0.1469
     15 C12         5.1125   -2.7441   -1.6729 C.ar      1 <0>        -0.0733
     16 F1          5.8022   -5.2518    0.8581 F         1 <0>        -0.1373
     17 C13         2.4758   -2.4351   -3.6743 C.2       1 <0>         0.5183
     18 O1          1.6255   -2.8066   -4.4552 O.2       1 <0>        -0.5114
     19 N2          2.1381   -1.6449   -2.6360 N.am      1 <0>        -0.7049
     20 C14         0.7439   -1.2349   -2.4507 C.3       1 <0>         0.1212
     21 C15         0.6338   -0.3487   -1.2083 C.3       1 <0>         0.0625
     22 H2          1.0646   -0.8613   -0.3482 H         1 <0>         0.0767
     23 C16        -0.8451   -0.0146   -0.9324 C.3       1 <0>        -0.1489
     24 C17        -0.8981    1.5321   -0.9706 C.3       1 <0>        -0.1561
     25 C18         0.5828    1.9141   -0.7188 C.3       1 <0>         0.0462
     26 O2          1.3189    0.8954   -1.4294 O.3       1 <0>        -0.3710
     27 C19         5.1933   -4.2941   -5.3565 C.2       1 <0>         0.6282
     28 O3          6.1993   -3.9800   -4.7477 O.2       1 <0>        -0.5221
     29 C20         5.2859   -5.1893   -6.5115 C.2       1 <0>        -0.3972
     30 C21         6.3986   -5.8563   -7.0271 C.2       1 <0>         0.2792
     31 C22         6.0879   -6.6259   -8.1483 C.2       1 <0>        -0.0349
     32 N3          4.8496   -6.6499   -8.5890 N.2       1 <0>        -0.4615
     33 S2          4.0079   -5.7247   -7.6300 S.3       1 <0>         0.4730
     34 C23         7.1372   -7.4044   -8.8316 C.2       1 <0>         0.6007
     35 O4          8.2805   -7.3778   -8.4182 O.2       1 <0>        -0.5423
     36 N4          6.8291   -8.1455   -9.9143 N.am      1 <0>        -0.8306
     37 N5          7.6731   -5.7643   -6.4838 N.pl3     1 <0>        -0.8040
     38 H3          2.4265   -2.1563   -9.8523 H         1 <0>         0.1228
     39 H4          3.2733   -4.0205   -8.4557 H         1 <0>         0.1273
     40 H5          1.0337   -0.3350   -8.6579 H         1 <0>         0.1749
     41 H6          2.9537   -5.2251   -6.1235 H         1 <0>         0.0763
     42 H7          1.9684   -4.3598   -4.9199 H         1 <0>         0.1519
     43 H8          3.6353   -5.4279   -3.0857 H         1 <0>         0.1295
     44 H9          4.4707   -6.4803   -1.0226 H         1 <0>         0.1370
     45 H10         6.1213   -2.7419    0.2118 H         1 <0>         0.1397
     46 H11         5.2918   -1.6950   -1.8564 H         1 <0>         0.1359
     47 H12         2.8182   -1.3477   -2.0114 H         1 <0>         0.4074
     48 H13         0.1191   -2.1189   -2.3230 H         1 <0>         0.0869
     49 H14         0.4099   -0.6771   -3.3256 H         1 <0>         0.0839
     50 H15        -1.1425   -0.3825    0.0495 H         1 <0>         0.0816
     51 H16        -1.4829   -0.4375   -1.7086 H         1 <0>         0.0841
     52 H17        -1.2306    1.8860   -1.9465 H         1 <0>         0.0796
     53 H18        -1.5396    1.9190   -0.1788 H         1 <0>         0.0829
     54 H19         0.7997    2.9006   -1.1284 H         1 <0>         0.0954
     55 H20         0.8120    1.8807    0.3463 H         1 <0>         0.0629
     56 H21         5.9171   -8.1667  -10.2440 H         1 <0>         0.4117
     57 H22         7.5194   -8.6578  -10.3638 H         1 <0>         0.4095
     58 H23         7.8281   -5.2123   -5.7014 H         1 <0>         0.4167
     59 H24         8.4084   -6.2521   -6.8867 H         1 <0>         0.4194
@<TRIPOS>BOND
     1    1    5 2
     2    1    2 1
     3    1   38 1
     4    2    3 2
     5    2   39 1
     6    3    4 1
     7    3    6 1
     8    4    5 1
     9    5   40 1
    10    6    7 1
    11    6   41 1
    12    6   42 1
    13    7    8 1
    14    7   27 am
    15    8    9 1
    16    8   10 1
    17    8   17 1
    18   10   15 ar
    19   10   11 ar
    20   11   12 ar
    21   11   43 1
    22   12   13 ar
    23   12   44 1
    24   13   14 ar
    25   13   16 1
    26   14   15 ar
    27   14   45 1
    28   15   46 1
    29   17   18 2
    30   17   19 am
    31   19   20 1
    32   19   47 1
    33   20   21 1
    34   20   48 1
    35   20   49 1
    36   21   22 1
    37   21   26 1
    38   21   23 1
    39   23   24 1
    40   23   50 1
    41   23   51 1
    42   24   25 1
    43   24   52 1
    44   24   53 1
    45   25   26 1
    46   25   54 1
    47   25   55 1
    48   27   28 2
    49   27   29 1
    50   29   33 1
    51   29   30 2
    52   30   31 1
    53   30   37 1
    54   31   32 2
    55   31   34 1
    56   32   33 1
    57   34   35 2
    58   34   36 am
    59   36   56 1
    60   36   57 1
    61   37   58 1
    62   37   59 1
@<TRIPOS>MOLECULE
ZINC21321537
   50    52     0     0     0
SMALL
USER_CHARGES
N-(3-acetamidophenyl)-2-[[4-amino-5-[(N'E)-N'-[(3-chlorophenyl)methylene]hydrazino]-1,2,4-triazol-3-yl]sulfanyl]acetamide
@<TRIPOS>ATOM
      1 C1          3.1072   20.1912    3.5979 C.3       1 <0>        -0.1721
      2 C2          3.6163   19.0411    2.7677 C.2       1 <0>         0.5115
      3 O1          3.3608   17.9003    3.0905 O.2       1 <0>        -0.5304
      4 N1          4.3556   19.2803    1.6665 N.am      1 <0>        -0.6865
      5 C3          4.9095   18.2135    0.9503 C.ar      1 <0>         0.1633
      6 C4          6.1530   18.3524    0.3463 C.ar      1 <0>        -0.1583
      7 C5          6.7005   17.2996   -0.3608 C.ar      1 <0>        -0.0831
      8 C6          6.0139   16.1054   -0.4699 C.ar      1 <0>        -0.1367
      9 C7          4.7706   15.9600    0.1320 C.ar      1 <0>         0.1648
     10 C8          4.2153   17.0176    0.8382 C.ar      1 <0>        -0.1475
     11 N2          4.0762   14.7502    0.0215 N.am      1 <0>        -0.6761
     12 C9          4.7520   13.5843    0.0063 C.2       1 <0>         0.5404
     13 O2          5.9649   13.5863    0.0038 O.2       1 <0>        -0.5081
     14 C10         4.0007   12.2780   -0.0076 C.3       1 <0>        -0.1453
     15 S1          5.1818   10.9013   -0.0263 S.3       1 <0>         0.0754
     16 C11         4.1617    9.4647   -0.0412 C.2       1 <0>         0.1742
     17 N3          2.8500    9.4504   -0.0378 N.2       1 <0>        -0.3037
     18 N4          2.4317    8.1134   -0.0575 N.2       1 <0>        -0.3118
     19 C12         3.5007    7.3546   -0.0640 C.2       1 <0>         0.4855
     20 N5          4.5979    8.1704   -0.0574 N.pl3     1 <0>        -0.2617
     21 N6          5.9016    7.7627   -0.0650 N.3       1 <0>        -0.7777
     22 N7          3.5161    5.9673   -0.0806 N.pl3     1 <0>        -0.5596
     23 N8          2.3106    5.2535   -0.0856 N.2       1 <0>        -0.1865
     24 C13         2.3249    3.9550   -0.1011 C.2       1 <0>         0.0897
     25 C14         1.0564    3.2038   -0.1064 C.ar      1 <0>        -0.0362
     26 C15         1.0681    1.8066   -0.1231 C.ar      1 <0>        -0.0880
     27 C16        -0.1221    1.1099   -0.1284 C.ar      1 <0>        -0.1096
     28 C17        -1.3267    1.7908   -0.1230 C.ar      1 <0>        -0.0967
     29 C18        -1.3467    3.1752   -0.1007 C.ar      1 <0>        -0.0383
     30 C19        -0.1628    3.8855   -0.0952 C.ar      1 <0>        -0.0740
     31 Cl1        -2.8635    4.0196   -0.0868 Cl        1 <0>        -0.0625
     32 H1          3.4379   21.1405    3.1512 H         1 <0>         0.0797
     33 H2          3.5041   20.1092    4.6205 H         1 <0>         0.0996
     34 H3          2.0080   20.1634    3.6279 H         1 <0>         0.0991
     35 H4          4.5236   20.3142    1.3307 H         1 <0>         0.4366
     36 H5          6.6923   19.2844    0.4300 H         1 <0>         0.1268
     37 H6          7.6674   17.4100   -0.8292 H         1 <0>         0.1305
     38 H7          6.4446   15.2842   -1.0235 H         1 <0>         0.1398
     39 H8          3.2466   16.9086    1.3031 H         1 <0>         0.1420
     40 H9          2.9787   14.7508   -0.0530 H         1 <0>         0.4410
     41 H10         3.3702   12.2081    0.8911 H         1 <0>         0.1333
     42 H11         3.3665   12.2293   -0.9051 H         1 <0>         0.1330
     43 H12         6.1422    6.6894   -0.0782 H         1 <0>         0.4366
     44 H13         6.7109    8.5077   -0.0579 H         1 <0>         0.4500
     45 H14         4.4747    5.4279   -0.0898 H         1 <0>         0.4109
     46 H15         3.2835    3.4156   -0.1103 H         1 <0>         0.1295
     47 H16         2.0073    1.2734   -0.1315 H         1 <0>         0.1353
     48 H17        -0.1139    0.0300   -0.1414 H         1 <0>         0.1382
     49 H18        -2.2556    1.2400   -0.1321 H         1 <0>         0.1365
     50 H19        -0.1792    4.9653   -0.0819 H         1 <0>         0.1469
@<TRIPOS>BOND
     1    1    2 1
     2    1   32 1
     3    1   33 1
     4    1   34 1
     5    2    3 2
     6    2    4 am
     7    4    5 1
     8    4   35 1
     9    5   10 ar
    10    5    6 ar
    11    6    7 ar
    12    6   36 1
    13    7    8 ar
    14    7   37 1
    15    8    9 ar
    16    8   38 1
    17    9   10 ar
    18    9   11 1
    19   10   39 1
    20   11   12 am
    21   11   40 1
    22   12   13 2
    23   12   14 1
    24   14   15 1
    25   14   41 1
    26   14   42 1
    27   15   16 1
    28   16   20 1
    29   16   17 2
    30   17   18 1
    31   18   19 2
    32   19   20 1
    33   19   22 1
    34   20   21 1
    35   21   43 1
    36   21   44 1
    37   22   23 1
    38   22   45 1
    39   23   24 2
    40   24   25 1
    41   24   46 1
    42   25   30 ar
    43   25   26 ar
    44   26   27 ar
    45   26   47 1
    46   27   28 ar
    47   27   48 1
    48   28   29 ar
    49   28   49 1
    50   29   30 ar
    51   29   31 1
    52   30   50 1
@<TRIPOS>MOLECULE
ZINC06551124
   57    59     0     0     0
SMALL
USER_CHARGES

@<TRIPOS>ATOM
      1 C1          2.7682    3.2725    1.6660 C.3       1 <0>        -0.1621
      2 C2          2.1867    1.8594    1.7432 C.3       1 <0>         0.1736
      3 C3          3.1334    0.9613    2.5420 C.3       1 <0>        -0.1635
      4 C4          0.8230    1.9062    2.4352 C.3       1 <0>        -0.1557
      5 N1          2.0293    1.3216    0.3896 N.am      1 <0>        -0.7212
      6 C5          3.1047    1.1878   -0.4117 C.2       1 <0>         0.5089
      7 O1          4.2027    1.5128   -0.0122 O.2       1 <0>        -0.4846
      8 C6          2.9427    0.6345   -1.8040 C.3       1 <0>         0.2263
      9 H1          2.0278    1.0278   -2.2471 H         1 <0>         0.1326
     10 C7          2.8643   -0.8691   -1.7411 C.2       1 <0>        -0.0289
     11 C8          1.7520   -1.6066   -1.9092 C.2       1 <0>        -0.1923
     12 C9          2.1333   -2.9608   -1.7688 C.2       1 <0>        -0.2191
     13 C10         3.4558   -2.9698   -1.5233 C.2       1 <0>        -0.0291
     14 O2          3.8943   -1.7004   -1.5134 O.3       1 <0>        -0.1342
     15 N2          4.0911    1.0298   -2.6232 N.am      1 <0>        -0.6023
     16 C11         3.8789    1.7241   -3.8957 C.3       1 <0>         0.1604
     17 C12         3.6473    3.1903   -3.6355 C.ar      1 <0>        -0.1278
     18 C13         2.3581    3.6854   -3.5730 C.ar      1 <0>        -0.0732
     19 C14         2.1444    5.0297   -3.3340 C.ar      1 <0>        -0.1517
     20 C15         3.2222    5.8807   -3.1570 C.ar      1 <0>         0.1095
     21 C16         4.5130    5.3836   -3.2198 C.ar      1 <0>        -0.1485
     22 C17         4.7240    4.0380   -3.4537 C.ar      1 <0>        -0.0745
     23 F1          3.0145    7.1951   -2.9237 F         1 <0>        -0.1368
     24 C18         5.3429    0.7548   -2.2062 C.2       1 <0>         0.6262
     25 O3          5.5174    0.0900   -1.2017 O.2       1 <0>        -0.4759
     26 C19         6.4929    1.2557   -2.9617 C.2       1 <0>        -0.3655
     27 C20         7.8458    1.2497   -2.6197 C.2       1 <0>         0.2704
     28 C21         8.6665    1.8170   -3.5925 C.2       1 <0>        -0.0143
     29 N3          8.1303    2.2887   -4.6985 N.2       1 <0>        -0.4315
     30 S1          6.5394    2.0285   -4.5663 S.3       1 <0>         0.3824
     31 C22        10.1244    1.8888   -3.3846 C.2       1 <0>         0.5986
     32 O4         10.6272    1.3549   -2.4146 O.2       1 <0>        -0.5370
     33 N4         10.8997    2.5461   -4.2696 N.am      1 <0>        -0.8296
     34 N5          8.3274    0.7295   -1.4258 N.pl3     1 <0>        -0.8032
     35 H2          3.7397    3.2392    1.1730 H         1 <0>         0.0767
     36 H3          2.0937    3.9124    1.0970 H         1 <0>         0.0530
     37 H4          2.8853    3.6727    2.6731 H         1 <0>         0.0624
     38 H5          3.2506    1.3615    3.5490 H         1 <0>         0.0614
     39 H6          2.7192   -0.0454    2.5969 H         1 <0>         0.0528
     40 H7          4.1050    0.9280    2.0489 H         1 <0>         0.0798
     41 H8          0.1485    2.5460    1.8662 H         1 <0>         0.0621
     42 H9          0.4087    0.8995    2.4902 H         1 <0>         0.0623
     43 H10         0.9401    2.3064    3.4423 H         1 <0>         0.0741
     44 H11         1.1510    1.0617    0.0701 H         1 <0>         0.3969
     45 H12         0.7583   -1.2354   -2.1120 H         1 <0>         0.1499
     46 H13         1.4867   -3.8226   -1.8439 H         1 <0>         0.1492
     47 H14         4.0628   -3.8490   -1.3650 H         1 <0>         0.2009
     48 H15         4.7587    1.6018   -4.5275 H         1 <0>         0.0833
     49 H16         3.0088    1.3025   -4.3989 H         1 <0>         0.1077
     50 H17         1.5175    3.0215   -3.7115 H         1 <0>         0.1352
     51 H18         1.1372    5.4164   -3.2856 H         1 <0>         0.1388
     52 H19         5.3544    6.0465   -3.0822 H         1 <0>         0.1368
     53 H20         5.7307    3.6493   -3.4983 H         1 <0>         0.1314
     54 H21        10.4986    2.9719   -5.0434 H         1 <0>         0.4118
     55 H22        11.8589    2.5933   -4.1329 H         1 <0>         0.4105
     56 H23         7.7313    0.2477   -0.8313 H         1 <0>         0.4185
     57 H24         9.2599    0.8478   -1.1863 H         1 <0>         0.4176
@<TRIPOS>BOND
     1    1    2 1
     2    1   35 1
     3    1   36 1
     4    1   37 1
     5    2    3 1
     6    2    4 1
     7    2    5 1
     8    3   38 1
     9    3   39 1
    10    3   40 1
    11    4   41 1
    12    4   42 1
    13    4   43 1
    14    5    6 am
    15    5   44 1
    16    6    7 2
    17    6    8 1
    18    8    9 1
    19    8   10 1
    20    8   15 1
    21   10   14 1
    22   10   11 2
    23   11   12 1
    24   11   45 1
    25   12   13 2
    26   12   46 1
    27   13   14 1
    28   13   47 1
    29   15   16 1
    30   15   24 am
    31   16   17 1
    32   16   48 1
    33   16   49 1
    34   17   22 ar
    35   17   18 ar
    36   18   19 ar
    37   18   50 1
    38   19   20 ar
    39   19   51 1
    40   20   21 ar
    41   20   23 1
    42   21   22 ar
    43   21   52 1
    44   22   53 1
    45   24   25 2
    46   24   26 1
    47   26   30 1
    48   26   27 2
    49   27   28 1
    50   27   34 1
    51   28   29 2
    52   28   31 1
    53   29   30 1
    54   31   32 2
    55   31   33 am
    56   33   54 1
    57   33   55 1
    58   34   56 1
    59   34   57 1
@<TRIPOS>MOLECULE
ZINC33516252
   66    69     0     0     0
SMALL
USER_CHARGES

@<TRIPOS>ATOM
      1 C1         -0.0167    1.3792    0.0096 C.ar      1 <0>        -0.1021
      2 C2          1.1683    2.0931    0.0021 C.ar      1 <0>        -0.1222
      3 C3          2.3774    1.4286   -0.0134 C.ar      1 <0>        -0.0934
      4 C4          2.4032    0.0335   -0.0212 C.ar      1 <0>        -0.0861
      5 C5          1.2045   -0.6806   -0.0131 C.ar      1 <0>        -0.0990
      6 C6          0.0021   -0.0041    0.0020 C.ar      1 <0>        -0.1202
      7 C7          3.6950   -0.6848   -0.0384 C.2       1 <0>        -0.0244
      8 C8          3.7162   -2.0103   -0.0457 C.2       1 <0>        -0.2182
      9 C9          5.0332   -2.7426   -0.0633 C.3       1 <0>         0.1057
     10 H1          5.8638   -2.0405    0.0084 H         1 <0>         0.1449
     11 C10         5.0950   -3.7677    1.0647 C.3       1 <0>        -0.1479
     12 H2          4.1635   -4.3225    1.1769 H         1 <0>         0.1621
     13 C11         6.2797   -4.6283    0.4826 C.3       1 <0>        -0.1427
     14 H3          7.0885   -3.9056    0.3747 H         1 <0>         0.1045
     15 C12         6.7070   -5.3728    1.6426 C.2       1 <0>         0.5745
     16 O1          7.1501   -6.5008    1.6738 O.2       1 <0>        -0.4113
     17 N1          6.5027   -4.5252    2.7030 N.am      1 <0>        -0.5946
     18 C13         5.7253   -3.4322    2.3794 C.2       1 <0>         0.5616
     19 O2          5.5833   -2.4105    3.0162 O.2       1 <0>        -0.4409
     20 C14         7.0411   -4.7607    4.0450 C.3       1 <0>         0.1369
     21 C15         5.8888   -4.8612    5.0464 C.3       1 <0>        -0.1332
     22 C16         6.4511   -5.1072    6.4479 C.3       1 <0>        -0.1151
     23 C17         7.3681   -3.9470    6.8404 C.3       1 <0>        -0.1235
     24 C18         8.5204   -3.8464    5.8389 C.3       1 <0>        -0.1156
     25 C19         7.9581   -3.6005    4.4374 C.3       1 <0>        -0.1329
     26 C20         5.8881   -4.8484   -0.9152 C.3       1 <0>         0.0275
     27 N2          5.1554   -3.5837   -1.2986 N.4       1 <0>        -0.5069
     28 C21         7.1276   -5.0161   -1.7964 C.3       1 <0>        -0.1146
     29 C22         6.7011   -5.1193   -3.2622 C.3       1 <0>        -0.1404
     30 C23         7.9406   -5.2869   -4.1434 C.3       1 <0>         0.1395
     31 N3          7.5322   -5.3857   -5.5468 N.am      1 <0>        -0.7468
     32 C24         8.4623   -5.5390   -6.5101 C.2       1 <0>         0.7050
     33 O3          9.6403   -5.5953   -6.2143 O.2       1 <0>        -0.5926
     34 N4          8.0866   -5.6299   -7.8012 N.am      1 <0>        -0.8670
     35 C25         4.9952   -6.0573   -1.0266 C.2       1 <0>         0.5041
     36 O4          3.8659   -5.9421   -1.4714 O.co2     1 <0>        -0.6632
     37 O5          5.4021   -7.1505   -0.6720 O.co2     1 <0>        -0.6047
     38 H4         -0.9604    1.9041    0.0260 H         1 <0>         0.1268
     39 H5          1.1469    3.1729    0.0082 H         1 <0>         0.1279
     40 H6          3.3018    1.9870   -0.0200 H         1 <0>         0.1273
     41 H7          1.2178   -1.7605   -0.0194 H         1 <0>         0.1282
     42 H8         -0.9265   -0.5556    0.0079 H         1 <0>         0.1286
     43 H9          4.6214   -0.1298   -0.0450 H         1 <0>         0.1296
     44 H10         2.7898   -2.5653   -0.0392 H         1 <0>         0.1447
     45 H11         7.6094   -5.6908    4.0504 H         1 <0>         0.1076
     46 H12         5.3205   -3.9311    5.0410 H         1 <0>         0.0731
     47 H13         5.2355   -5.6878    4.7669 H         1 <0>         0.0707
     48 H14         5.6302   -5.1788    7.1614 H         1 <0>         0.0709
     49 H15         7.0194   -6.0373    6.4534 H         1 <0>         0.0679
     50 H16         6.7998   -3.0168    6.8349 H         1 <0>         0.0648
     51 H17         7.7687   -4.1222    7.8388 H         1 <0>         0.0675
     52 H18         9.1737   -3.0199    6.1185 H         1 <0>         0.0701
     53 H19         9.0887   -4.7765    5.8443 H         1 <0>         0.0665
     54 H20         8.7790   -3.5289    3.7239 H         1 <0>         0.0657
     55 H21         7.3898   -2.6704    4.4320 H         1 <0>         0.0818
     56 H22         4.2373   -3.8212   -1.6433 H         1 <0>         0.4381
     57 H23         7.7834   -4.1550   -1.6686 H         1 <0>         0.0815
     58 H24         7.6585   -5.9232   -1.5078 H         1 <0>         0.1226
     59 H25         6.0452   -5.9804   -3.3900 H         1 <0>         0.0952
     60 H26         6.1701   -4.2121   -3.5508 H         1 <0>         0.0611
     61 H27         8.5964   -4.4258   -4.0155 H         1 <0>         0.0690
     62 H28         8.4715   -6.1941   -3.8548 H         1 <0>         0.0754
     63 H29         6.5924   -5.3408   -5.7828 H         1 <0>         0.3981
     64 H30         7.1468   -5.5850   -8.0372 H         1 <0>         0.3975
     65 H31         8.7560   -5.7402   -8.4945 H         1 <0>         0.4165
     66 H32         5.6686   -3.0799   -2.0063 H         1 <0>         0.4187
@<TRIPOS>BOND
     1    1    6 ar
     2    1    2 ar
     3    1   38 1
     4    2    3 ar
     5    2   39 1
     6    3    4 ar
     7    3   40 1
     8    4    5 ar
     9    4    7 1
    10    5    6 ar
    11    5   41 1
    12    6   42 1
    13    7    8 2
    14    7   43 1
    15    8    9 1
    16    8   44 1
    17    9   10 1
    18    9   27 1
    19    9   11 1
    20   11   12 1
    21   11   18 1
    22   11   13 1
    23   13   14 1
    24   13   15 1
    25   13   26 1
    26   15   16 2
    27   15   17 am
    28   17   18 am
    29   17   20 1
    30   18   19 2
    31   20   25 1
    32   20   21 1
    33   20   45 1
    34   21   22 1
    35   21   46 1
    36   21   47 1
    37   22   23 1
    38   22   48 1
    39   22   49 1
    40   23   24 1
    41   23   50 1
    42   23   51 1
    43   24   25 1
    44   24   52 1
    45   24   53 1
    46   25   54 1
    47   25   55 1
    48   26   27 1
    49   26   28 1
    50   26   35 1
    51   27   56 1
    52   27   66 1
    53   28   29 1
    54   28   57 1
    55   28   58 1
    56   29   30 1
    57   29   59 1
    58   29   60 1
    59   30   31 1
    60   30   61 1
    61   30   62 1
    62   31   32 am
    63   31   63 1
    64   32   33 2
    65   32   34 am
    66   34   64 1
    67   34   65 1
    68   35   36 2
    69   35   37 1
@<TRIPOS>MOLECULE
ZINC09253945
   54    57     0     0     0
SMALL
USER_CHARGES
3-[chloro-(3-methoxypropyl)-trioxo-BLAHyl]propanamide
@<TRIPOS>ATOM
      1 C1         -1.5266   -5.1317   -3.3955 C.3       1 <0>         0.0302
      2 O1         -1.0016   -4.0480   -2.6261 O.3       1 <0>        -0.3912
      3 C2         -0.0520   -3.2433   -3.3280 C.3       1 <0>         0.0630
      4 C3          0.4403   -2.1203   -2.4129 C.3       1 <0>        -0.1290
      5 C4          1.4570   -1.2587   -3.1645 C.3       1 <0>         0.0996
      6 N1          1.9283   -0.1834   -2.2882 N.am      1 <0>        -0.5578
      7 C5          2.9933   -0.3156   -1.4891 C.2       1 <0>         0.5371
      8 O2          3.6790   -1.3108   -1.3951 O.2       1 <0>        -0.4330
      9 C6          3.2083    0.9691   -0.7212 C.3       1 <0>        -0.1378
     10 H1          4.1968    1.4020   -0.8746 H         1 <0>         0.1801
     11 C7          2.8891    0.7273    0.7697 C.3       1 <0>         0.0371
     12 H2          2.3392   -0.2057    0.8934 H         1 <0>         0.1626
     13 C8          1.1801    2.1232    0.0022 C.3       1 <0>         0.0951
     14 C9          2.0611    1.8861   -1.2299 C.3       1 <0>        -0.1251
     15 H3          2.4263    2.8151   -1.6677 H         1 <0>         0.1804
     16 C10         1.3227    1.0244   -2.2288 C.2       1 <0>         0.5323
     17 O3          0.3489    1.3669   -2.8645 O.2       1 <0>        -0.4296
     18 C11         0.6088    3.5126    0.0131 C.ar      1 <0>        -0.1893
     19 C12         1.1721    4.7691    0.0121 C.ar      1 <0>        -0.0353
     20 C13         0.3616    5.8916    0.0231 C.ar      1 <0>        -0.0501
     21 C14        -1.0148    5.7466    0.0362 C.ar      1 <0>        -0.0339
     22 C15        -1.5822    4.4895    0.0375 C.ar      1 <0>        -0.1075
     23 C16        -0.7739    3.3552    0.0255 C.ar      1 <0>         0.1774
     24 N2         -1.1057    1.9981    0.0174 N.am      1 <0>        -0.6307
     25 C17        -0.0144    1.2087    0.0087 C.2       1 <0>         0.5203
     26 O4          0.0021   -0.0041    0.0020 O.2       1 <0>        -0.4334
     27 Cl1         1.0698    7.4766    0.0198 Cl        1 <0>        -0.0251
     28 C18         4.1789    0.6969    1.5922 C.3       1 <0>        -0.1207
     29 C19         3.8510    0.3332    3.0417 C.3       1 <0>        -0.1609
     30 C20         5.1213    0.3033    3.8518 C.2       1 <0>         0.5170
     31 O5          6.1843    0.5487    3.3220 O.2       1 <0>        -0.5324
     32 N3          5.0762    0.0037    5.1651 N.am      1 <0>        -0.8500
     33 H4         -2.0287   -4.7396   -4.2799 H         1 <0>         0.0447
     34 H5         -0.7121   -5.7884   -3.7011 H         1 <0>         0.0455
     35 H6         -2.2395   -5.6937   -2.7922 H         1 <0>         0.0907
     36 H7         -0.5235   -2.8120   -4.2111 H         1 <0>         0.0542
     37 H8          0.7931   -3.8608   -3.6323 H         1 <0>         0.0559
     38 H9          0.9117   -2.5515   -1.5298 H         1 <0>         0.0795
     39 H10        -0.4048   -1.5028   -2.1086 H         1 <0>         0.0788
     40 H11         0.9855   -0.8274   -4.0475 H         1 <0>         0.1044
     41 H12         2.3021   -1.8762   -3.4687 H         1 <0>         0.1078
     42 H13         2.2464    4.8791    0.0023 H         1 <0>         0.1530
     43 H14        -1.6474    6.6219    0.0452 H         1 <0>         0.1613
     44 H15        -2.6570    4.3843    0.0474 H         1 <0>         0.1562
     45 H16        -2.0161    1.6633    0.0203 H         1 <0>         0.4406
     46 H17         4.8580   -0.0469    1.1756 H         1 <0>         0.1363
     47 H18         4.6522    1.6783    1.5621 H         1 <0>         0.1091
     48 H19         3.1718    1.0770    3.4583 H         1 <0>         0.0923
     49 H20         3.3776   -0.6483    3.0718 H         1 <0>         0.1139
     50 H21         4.2260   -0.1926    5.5888 H         1 <0>         0.4046
     51 H22         5.8939   -0.0155    5.6865 H         1 <0>         0.4117
     52 N4          2.0456    1.8660    1.1399 N.4       1 <0>        -0.4888
     53 H23         2.6271    2.6890    1.3369 H         1 <0>         0.4457
     54 H24         1.4843    1.6372    1.9686 H         1 <0>         0.4436
@<TRIPOS>BOND
     1    1    2 1
     2    1   33 1
     3    1   34 1
     4    1   35 1
     5    2    3 1
     6    3    4 1
     7    3   36 1
     8    3   37 1
     9    4    5 1
    10    4   38 1
    11    4   39 1
    12    5    6 1
    13    5   40 1
    14    5   41 1
    15    6   16 am
    16    6    7 am
    17    7    8 2
    18    7    9 1
    19    9   10 1
    20    9   14 1
    21    9   11 1
    22   11   12 1
    23   11   28 1
    24   11   52 1
    25   13   25 1
    26   13   14 1
    27   13   18 1
    28   13   52 1
    29   14   15 1
    30   14   16 1
    31   16   17 2
    32   18   23 ar
    33   18   19 ar
    34   19   20 ar
    35   19   42 1
    36   20   21 ar
    37   20   27 1
    38   21   22 ar
    39   21   43 1
    40   22   23 ar
    41   22   44 1
    42   23   24 1
    43   24   25 am
    44   24   45 1
    45   25   26 2
    46   28   29 1
    47   28   46 1
    48   28   47 1
    49   29   30 1
    50   29   48 1
    51   29   49 1
    52   30   31 2
    53   30   32 am
    54   32   50 1
    55   32   51 1
    56   52   53 1
    57   52   54 1
@<TRIPOS>MOLECULE
ZINC34748612
   49    51     0     0     0
SMALL
USER_CHARGES

@<TRIPOS>ATOM
      1 C1          0.0104    1.4640   -0.0418 C.3       1 <0>        -0.1081
      2 C2          0.0790   -0.0413   -0.0236 C.2       1 <0>        -0.0659
      3 C3          0.1683   -0.7303   -1.1708 C.2       1 <0>        -0.1478
      4 S1          0.2197   -2.4286   -0.6310 S.3       1 <0>         0.1563
      5 C4          0.1198   -2.1639    1.1208 C.2       1 <0>         0.0889
      6 C5          0.0553   -0.7627    1.2372 C.2       1 <0>        -0.2201
      7 C6         -0.0289   -0.2526    2.5712 C.2       1 <0>         0.5642
      8 O1         -0.0937    0.9483    2.7702 O.2       1 <0>        -0.5050
      9 N1         -0.0361   -1.1160    3.6034 N.am      1 <0>        -0.5092
     10 C7          0.0357   -2.4625    3.4003 C.2       1 <0>         0.6217
     11 N2          0.1034   -2.9604    2.1831 N.2       1 <0>        -0.4710
     12 N3          0.0261   -3.3112    4.4792 N.pl3     1 <0>        -0.6542
     13 C8         -1.2373   -3.8478    5.0083 C.3       1 <0>         0.1204
     14 C9         -1.1014   -5.3682    5.1413 C.3       1 <0>        -0.0202
     15 N4          0.0792   -5.6838    5.9553 N.4       1 <0>        -0.3690
     16 C10         1.2962   -5.2373    5.2656 C.3       1 <0>        -0.0314
     17 C11         1.2795   -3.7148    5.1352 C.3       1 <0>         0.1200
     18 C12         0.1472   -7.1348    6.1744 C.3       1 <0>        -0.0332
     19 C13         1.2862   -7.4488    7.1098 C.2       1 <0>         0.5091
     20 O2          1.9737   -6.5522    7.5506 O.2       1 <0>        -0.5301
     21 N5          1.5409   -8.7261    7.4566 N.am      1 <0>        -0.8235
     22 C14        -0.1222   -0.5993    4.9715 C.3       1 <0>         0.0698
     23 C15        -1.5691   -0.4028    5.3441 C.2       1 <0>         0.5054
     24 O3         -2.4424   -0.6681    4.5455 O.2       1 <0>        -0.5259
     25 N6         -1.8927    0.0679    6.5649 N.am      1 <0>        -0.8462
     26 C16         0.2137   -0.1965   -2.5793 C.3       1 <0>        -0.0739
     27 H1          1.0193    1.8742    0.0001 H         1 <0>         0.0751
     28 H2         -0.4783    1.7943   -0.9584 H         1 <0>         0.0716
     29 H3         -0.5595    1.8122    0.8196 H         1 <0>         0.0827
     30 H4         -1.4396   -3.4112    5.9863 H         1 <0>         0.0908
     31 H5         -2.0512   -3.6114    4.3229 H         1 <0>         0.1279
     32 H6         -1.9926   -5.7721    5.6217 H         1 <0>         0.1463
     33 H7         -0.9894   -5.8111    4.1516 H         1 <0>         0.1430
     34 H8          2.1717   -5.5447    5.8375 H         1 <0>         0.1593
     35 H9          1.3356   -5.6841    4.2721 H         1 <0>         0.1373
     36 H10         2.1287   -3.3905    4.5337 H         1 <0>         0.1245
     37 H11         1.3356   -3.2645    6.1263 H         1 <0>         0.0954
     38 H12        -0.7890   -7.4802    6.6130 H         1 <0>         0.1640
     39 H13         0.3098   -7.6388    5.2217 H         1 <0>         0.1629
     40 H14         0.9910   -9.4432    7.1040 H         1 <0>         0.4147
     41 H15         2.2740   -8.9282    8.0587 H         1 <0>         0.4249
     42 H16         0.3364   -1.3109    5.6582 H         1 <0>         0.1226
     43 H17         0.4017    0.3545    5.0334 H         1 <0>         0.1344
     44 H18        -1.1942    0.2801    7.2037 H         1 <0>         0.4057
     45 H19        -2.8240    0.1944    6.8047 H         1 <0>         0.4112
     46 H20         1.2499   -0.0201   -2.8678 H         1 <0>         0.0864
     47 H21        -0.2337   -0.9229   -3.2578 H         1 <0>         0.0796
     48 H22        -0.3423    0.7396   -2.6312 H         1 <0>         0.0894
     49 H23         0.0075   -5.2147    6.8458 H         1 <0>         0.4289
@<TRIPOS>BOND
     1    1    2 1
     2    1   27 1
     3    1   28 1
     4    1   29 1
     5    2    6 1
     6    2    3 2
     7    3    4 1
     8    3   26 1
     9    4    5 1
    10    5   11 1
    11    5    6 2
    12    6    7 1
    13    7    8 2
    14    7    9 am
    15    9   10 1
    16    9   22 1
    17   10   11 2
    18   10   12 1
    19   12   17 1
    20   12   13 1
    21   13   14 1
    22   13   30 1
    23   13   31 1
    24   14   15 1
    25   14   32 1
    26   14   33 1
    27   15   16 1
    28   15   18 1
    29   15   49 1
    30   16   17 1
    31   16   34 1
    32   16   35 1
    33   17   36 1
    34   17   37 1
    35   18   19 1
    36   18   38 1
    37   18   39 1
    38   19   20 2
    39   19   21 am
    40   21   40 1
    41   21   41 1
    42   22   23 1
    43   22   42 1
    44   22   43 1
    45   23   24 2
    46   23   25 am
    47   25   44 1
    48   25   45 1
    49   26   46 1
    50   26   47 1
    51   26   48 1
@<TRIPOS>MOLECULE
ZINC43412228
   41    41     0     0     0
SMALL
USER_CHARGES

@<TRIPOS>ATOM
      1 C1          1.1337   -0.5600   -1.2628 C.3       1 <0>        -0.1784
      2 C2          0.3866   -0.2247    0.0296 C.3       1 <0>         0.0513
      3 C3          0.4835    1.2782    0.2995 C.3       1 <0>        -0.1795
      4 C4         -1.0836   -0.6235   -0.1130 C.3       1 <0>         0.0973
      5 N1         -1.1840   -2.0789   -0.2470 N.pl3     1 <0>        -1.1398
      6 S1         -2.6368   -2.8347   -0.0017 S.o2      1 <0>         2.6996
      7 O1         -2.4188   -4.2194   -0.2350 O.2       1 <0>        -0.9411
      8 O2         -3.1490   -2.3408    1.2284 O.2       1 <0>        -0.9372
      9 C5         -3.7333   -2.2780   -1.2636 C.ar      1 <0>        -0.8013
     10 C6         -4.8591   -1.5421   -0.9395 C.ar      1 <0>         0.0963
     11 C7         -5.6957   -1.1238   -1.9665 C.ar      1 <0>        -0.2260
     12 C8         -5.3816   -1.4525   -3.2710 C.ar      1 <0>         0.2509
     13 N2         -4.3008   -2.1562   -3.5497 N.ar      1 <0>        -0.5196
     14 C9         -3.4757   -2.5677   -2.5993 C.ar      1 <0>         0.5063
     15 N3         -2.3444   -3.3012   -2.9393 N.pl3     1 <0>        -0.5572
     16 N4         -2.0403   -3.5179   -4.2533 N.3       1 <0>        -0.5913
     17 Br1        -7.2488   -0.1156   -1.5828 Br        1 <0>        -0.0110
     18 N5          0.9879   -0.9628    1.1484 N.4       1 <0>        -0.3821
     19 C10         2.3785   -0.5262    1.3320 C.3       1 <0>        -0.0580
     20 C11         0.2255   -0.6982    2.3758 C.3       1 <0>        -0.0655
     21 H1          2.1811   -0.2759   -1.1612 H         1 <0>         0.0903
     22 H2          1.0647   -1.6307   -1.4550 H         1 <0>         0.0794
     23 H3          0.6875   -0.0123   -2.0929 H         1 <0>         0.1115
     24 H4          0.0374    1.8259   -0.5306 H         1 <0>         0.1105
     25 H5         -0.0487    1.5171    1.2202 H         1 <0>         0.0888
     26 H6          1.5309    1.5623    0.4011 H         1 <0>         0.0928
     27 H7         -1.6348   -0.3011    0.7704 H         1 <0>         0.1140
     28 H8         -1.5050   -0.1472   -0.9981 H         1 <0>         0.1154
     29 H9         -0.3994   -2.5998   -0.4794 H         1 <0>         0.4156
     30 H10        -5.0825   -1.2985    0.0887 H         1 <0>         0.1658
     31 H11        -6.0290   -1.1296   -4.0728 H         1 <0>         0.1810
     32 H12        -1.7712   -3.6591   -2.2434 H         1 <0>         0.4059
     33 H13        -1.1959   -4.0628   -4.3439 H         1 <0>         0.3639
     34 H14        -2.8092   -3.9599   -4.7343 H         1 <0>         0.3592
     35 H15         2.3984    0.5418    1.5489 H         1 <0>         0.1286
     36 H16         2.8247   -1.0739    2.1621 H         1 <0>         0.1279
     37 H17         2.9443   -0.7226    0.4213 H         1 <0>         0.1261
     38 H18        -0.7812   -1.1033    2.2727 H         1 <0>         0.1283
     39 H19         0.7230   -1.1722    3.2219 H         1 <0>         0.1303
     40 H20         0.1688    0.3773    2.5435 H         1 <0>         0.1302
     41 H21         0.9696   -1.9515    0.9476 H         1 <0>         0.4206
@<TRIPOS>BOND
     1    1    2 1
     2    1   21 1
     3    1   22 1
     4    1   23 1
     5    2    3 1
     6    2    4 1
     7    2   18 1
     8    3   24 1
     9    3   25 1
    10    3   26 1
    11    4    5 1
    12    4   27 1
    13    4   28 1
    14    5    6 1
    15    5   29 1
    16    6    7 2
    17    6    8 2
    18    6    9 1
    19    9   14 ar
    20    9   10 ar
    21   10   11 ar
    22   10   30 1
    23   11   12 ar
    24   11   17 1
    25   12   13 ar
    26   12   31 1
    27   13   14 ar
    28   14   15 1
    29   15   16 1
    30   15   32 1
    31   16   33 1
    32   16   34 1
    33   18   19 1
    34   18   20 1
    35   18   41 1
    36   19   35 1
    37   19   36 1
    38   19   37 1
    39   20   38 1
    40   20   39 1
    41   20   40 1
@<TRIPOS>MOLECULE
ZINC61805317
   43    43     0     0     0
SMALL
USER_CHARGES

@<TRIPOS>ATOM
      1 C1         -0.6708    1.2201    0.2614 C.3       1 <0>        -0.1745
      2 C2         -0.2763   -0.2549    0.1632 C.3       1 <0>        -0.1531
      3 C3          0.4294   -0.5064   -1.1708 C.3       1 <0>         0.0216
      4 H1         -0.2096   -0.1730   -1.9884 H         1 <0>         0.1490
      5 C4          0.7141   -2.0019   -1.3231 C.3       1 <0>         0.0978
      6 H2          1.3486   -2.3365   -0.5024 H         1 <0>         0.1412
      7 C5          1.4160   -2.2487   -2.6336 C.ar      1 <0>        -0.1411
      8 C6          0.6890   -2.3007   -3.8082 C.ar      1 <0>        -0.1187
      9 C7          1.3328   -2.5266   -5.0103 C.ar      1 <0>        -0.0885
     10 C8          2.7041   -2.7006   -5.0386 C.ar      1 <0>        -0.0899
     11 C9          3.4317   -2.6488   -3.8648 C.ar      1 <0>        -0.0743
     12 C10         2.7884   -2.4175   -2.6620 C.ar      1 <0>        -0.1033
     13 Br1         3.7844   -2.3394   -1.0565 Br        1 <0>        -0.0275
     14 N1         -0.5521   -2.7464   -1.2980 N.3       1 <0>        -0.4641
     15 C11        -1.6387   -1.9572   -1.8933 C.3       1 <0>        -0.0077
     16 C12        -2.9659   -2.5538   -1.5011 C.2       1 <0>         0.5095
     17 O1         -3.0078   -3.4730   -0.7110 O.2       1 <0>        -0.5037
     18 N2         -4.1062   -2.0658   -2.0284 N.am      1 <0>        -0.8540
     19 C13        -0.4133   -4.0440   -1.9726 C.3       1 <0>         0.0132
     20 C14         0.3250   -5.0014   -1.0730 C.2       1 <0>         0.5218
     21 O2          0.6095   -4.6727    0.0592 O.2       1 <0>        -0.5162
     22 N3          0.6692   -6.2230   -1.5267 N.am      1 <0>        -0.8556
     23 N4          1.6950    0.2387   -1.2033 N.4       1 <0>        -0.6355
     24 H3          0.2235    1.8402    0.2009 H         1 <0>         0.0534
     25 H4         -1.3435    1.4717   -0.5586 H         1 <0>         0.0712
     26 H5         -1.1736    1.3993    1.2117 H         1 <0>         0.0892
     27 H6          0.3963   -0.5064    0.9832 H         1 <0>         0.1000
     28 H7         -1.1707   -0.8750    0.2237 H         1 <0>         0.1275
     29 H8         -0.3823   -2.1652   -3.7866 H         1 <0>         0.1422
     30 H9          0.7644   -2.5675   -5.9277 H         1 <0>         0.1437
     31 H10         3.2067   -2.8774   -5.9780 H         1 <0>         0.1459
     32 H11         4.5029   -2.7847   -3.8870 H         1 <0>         0.1461
     33 H12        -1.5813   -0.9301   -1.5329 H         1 <0>         0.1211
     34 H13        -1.5424   -1.9672   -2.9790 H         1 <0>         0.0813
     35 H14        -4.0727   -1.3307   -2.6603 H         1 <0>         0.4012
     36 H15        -4.9605   -2.4498   -1.7760 H         1 <0>         0.4116
     37 H16        -1.4019   -4.4447   -2.1964 H         1 <0>         0.1175
     38 H17         0.1444   -3.9135   -2.9000 H         1 <0>         0.0905
     39 H18         0.4417   -6.4859   -2.4322 H         1 <0>         0.4004
     40 H19         1.1444   -6.8392   -0.9476 H         1 <0>         0.4082
     41 H20         2.2865   -0.0699   -0.4464 H         1 <0>         0.4322
     42 H21         2.1604    0.0729   -2.0830 H         1 <0>         0.4315
     43 H22         1.5073    1.2250   -1.1028 H         1 <0>         0.4386
@<TRIPOS>BOND
     1    1    2 1
     2    1   24 1
     3    1   25 1
     4    1   26 1
     5    2    3 1
     6    2   27 1
     7    2   28 1
     8    3    4 1
     9    3    5 1
    10    3   23 1
    11    5    6 1
    12    5    7 1
    13    5   14 1
    14    7   12 ar
    15    7    8 ar
    16    8    9 ar
    17    8   29 1
    18    9   10 ar
    19    9   30 1
    20   10   11 ar
    21   10   31 1
    22   11   12 ar
    23   11   32 1
    24   12   13 1
    25   14   15 1
    26   14   19 1
    27   15   16 1
    28   15   33 1
    29   15   34 1
    30   16   17 2
    31   16   18 am
    32   18   35 1
    33   18   36 1
    34   19   20 1
    35   19   37 1
    36   19   38 1
    37   20   21 2
    38   20   22 am
    39   22   39 1
    40   22   40 1
    41   23   41 1
    42   23   42 1
    43   23   43 1
@<TRIPOS>MOLECULE
ZINC66568418
   57    59     0     0     0
SMALL
USER_CHARGES

@<TRIPOS>ATOM
      1 C1         -0.0187    1.5258    0.0104 C.3       1 <0>        -0.1521
      2 C2          0.0021   -0.0041    0.0020 C.3       1 <0>         0.0507
      3 N1         -1.3761   -0.5125    0.0124 N.3       1 <0>        -0.5389
      4 C3         -2.0772   -0.1585   -1.2289 C.3       1 <0>         0.0365
      5 C4         -3.5549   -0.5450   -1.1051 C.3       1 <0>         0.1150
      6 N2         -3.6366   -1.9642   -0.7277 N.am      1 <0>        -0.6098
      7 C5         -2.8502   -2.4236    0.4272 C.3       1 <0>         0.1093
      8 C6         -1.4003   -1.9631    0.2430 C.3       1 <0>         0.0379
      9 C7         -4.4118   -2.8210   -1.4216 C.2       1 <0>         0.5147
     10 O1         -5.0539   -2.4249   -2.3712 O.2       1 <0>        -0.5428
     11 C8         -4.4807   -4.2712   -1.0175 C.3       1 <0>        -0.1392
     12 C9         -5.4240   -5.0194   -1.9616 C.3       1 <0>        -0.0840
     13 C10        -6.8505   -4.4911   -1.7849 C.3       1 <0>        -0.1470
     14 C11        -7.8007   -5.2970   -2.6732 C.3       1 <0>        -0.0024
     15 N3         -7.7510   -6.7132   -2.2906 N.4       1 <0>        -0.3792
     16 C12        -6.4034   -7.2455   -2.5252 C.3       1 <0>        -0.0066
     17 C13        -5.3993   -6.5145   -1.6312 C.3       1 <0>        -0.1411
     18 C14        -8.7213   -7.4700   -3.0928 C.3       1 <0>         0.0752
     19 C15        -8.7597   -8.8996   -2.6176 C.ar      1 <0>         0.3812
     20 N4         -7.9458   -9.7935   -3.1514 N.ar      1 <0>        -0.6253
     21 C16        -7.9764  -11.0571   -2.7340 C.ar      1 <0>         0.6424
     22 N5         -8.8267  -11.4191   -1.7795 N.ar      1 <0>        -0.6365
     23 C17        -9.6433  -10.5176   -1.2453 C.ar      1 <0>         0.6436
     24 N6         -9.6033   -9.2548   -1.6644 N.ar      1 <0>        -0.6237
     25 N7        -10.5282  -10.8886   -0.2536 N.pl3     1 <0>        -0.7910
     26 N8         -7.1265  -11.9900   -3.2923 N.pl3     1 <0>        -0.7918
     27 H1          1.0039    1.9031    0.0027 H         1 <0>         0.0636
     28 H2         -0.5459    1.8868   -0.8726 H         1 <0>         0.0552
     29 H3         -0.5289    1.8773    0.9072 H         1 <0>         0.0656
     30 H4          0.5123   -0.3556   -0.8948 H         1 <0>         0.0351
     31 H5          0.5293   -0.3651    0.8851 H         1 <0>         0.0786
     32 H6         -1.9951    0.9149   -1.3996 H         1 <0>         0.0952
     33 H7         -1.6297   -0.6955   -2.0653 H         1 <0>         0.0387
     34 H8         -4.0301    0.0659   -0.3375 H         1 <0>         0.0794
     35 H9         -4.0550   -0.3910   -2.0612 H         1 <0>         0.0980
     36 H10        -3.2576   -1.9932    1.3421 H         1 <0>         0.0837
     37 H11        -2.8845   -3.5115    0.4841 H         1 <0>         0.0881
     38 H12        -0.9622   -2.4750   -0.6138 H         1 <0>         0.0391
     39 H13        -0.8272   -2.1984    1.1399 H         1 <0>         0.0921
     40 H14        -3.4853   -4.7118   -1.0740 H         1 <0>         0.1032
     41 H15        -4.8539   -4.3464    0.0038 H         1 <0>         0.1001
     42 H16        -5.1032   -4.8686   -2.9923 H         1 <0>         0.0998
     43 H17        -7.1507   -4.5952   -0.7423 H         1 <0>         0.0836
     44 H18        -6.8875   -3.4401   -2.0718 H         1 <0>         0.1320
     45 H19        -8.8172   -4.9233   -2.5500 H         1 <0>         0.1349
     46 H20        -7.4998   -5.1920   -3.7156 H         1 <0>         0.1343
     47 H21        -6.3882   -8.3103   -2.2927 H         1 <0>         0.1282
     48 H22        -6.1322   -7.0989   -3.5707 H         1 <0>         0.1356
     49 H23        -4.3991   -6.9100   -1.8082 H         1 <0>         0.1128
     50 H24        -5.6694   -6.6607   -0.5854 H         1 <0>         0.0864
     51 H25        -9.7098   -7.0241   -2.9832 H         1 <0>         0.1590
     52 H26        -8.4250   -7.4435   -4.1415 H         1 <0>         0.1578
     53 H27       -10.5542  -11.8082    0.0540 H         1 <0>         0.4261
     54 H28       -11.1241  -10.2299    0.1360 H         1 <0>         0.4246
     55 H29        -6.5062  -11.7250   -3.9894 H         1 <0>         0.4241
     56 H30        -7.1493  -12.9106   -2.9876 H         1 <0>         0.4260
     57 H31        -7.9821   -6.8046   -1.3126 H         1 <0>         0.4241
@<TRIPOS>BOND
     1    1    2 1
     2    1   27 1
     3    1   28 1
     4    1   29 1
     5    2    3 1
     6    2   30 1
     7    2   31 1
     8    3    8 1
     9    3    4 1
    10    4    5 1
    11    4   32 1
    12    4   33 1
    13    5    6 1
    14    5   34 1
    15    5   35 1
    16    6    7 1
    17    6    9 am
    18    7    8 1
    19    7   36 1
    20    7   37 1
    21    8   38 1
    22    8   39 1
    23    9   10 2
    24    9   11 1
    25   11   12 1
    26   11   40 1
    27   11   41 1
    28   12   17 1
    29   12   13 1
    30   12   42 1
    31   13   14 1
    32   13   43 1
    33   13   44 1
    34   14   15 1
    35   14   45 1
    36   14   46 1
    37   15   16 1
    38   15   18 1
    39   15   57 1
    40   16   17 1
    41   16   47 1
    42   16   48 1
    43   17   49 1
    44   17   50 1
    45   18   19 1
    46   18   51 1
    47   18   52 1
    48   19   24 ar
    49   19   20 ar
    50   20   21 ar
    51   21   22 ar
    52   21   26 1
    53   22   23 ar
    54   23   24 ar
    55   23   25 1
    56   25   53 1
    57   25   54 1
    58   26   55 1
    59   26   56 1
@<TRIPOS>MOLECULE
ZINC37183565
   36    38     0     0     0
SMALL
USER_CHARGES

@<TRIPOS>ATOM
      1 C1         -0.0167    1.3803    0.0096 C.ar      1 <0>        -0.0785
      2 C2          1.1754    2.0829    0.0020 C.ar      1 <0>        -0.0808
      3 C3          2.3811    1.4074   -0.0139 C.ar      1 <0>        -0.1110
      4 C4          2.4038    0.0229   -0.0216 C.ar      1 <0>        -0.0274
      5 C5          1.2120   -0.6830   -0.0132 C.ar      1 <0>         0.0862
      6 C6          0.0021   -0.0041    0.0020 C.ar      1 <0>         0.0906
      7 O1         -1.1665   -0.7089    0.0104 O.3       1 <0>        -0.3087
      8 C7         -1.4676   -1.4333   -1.1841 C.3       1 <0>         0.0587
      9 C8         -0.7797   -2.7894   -1.1806 C.3       1 <0>        -0.1909
     10 C9          0.7359   -2.6698   -1.2116 C.3       1 <0>         0.0598
     11 O2          1.2196   -2.0479   -0.0199 O.3       1 <0>        -0.3050
     12 Cl1         3.9189   -0.8243   -0.0422 Cl        1 <0>        -0.0353
     13 C10         1.1589    3.5898    0.0106 C.3       1 <0>        -0.0002
     14 H1          0.1860    3.9445   -0.3295 H         1 <0>         0.1443
     15 C11         1.4137    4.0870    1.4102 C.2       1 <0>         0.4982
     16 O3          2.4663    4.6407    1.6783 O.co2     1 <0>        -0.6603
     17 O4          0.5671    3.9356    2.2745 O.co2     1 <0>        -0.6248
     18 N1          2.2058    4.0960   -0.8870 N.4       1 <0>        -0.4560
     19 C12         2.1127    5.5597   -0.9716 C.3       1 <0>        -0.0508
     20 C13         1.7777    6.1687   -2.3346 C.3       1 <0>        -0.1661
     21 C14         3.1941    6.2914   -1.7691 C.3       1 <0>        -0.1551
     22 H2         -0.9579    1.9097    0.0260 H         1 <0>         0.1518
     23 H3          3.3083    1.9611   -0.0206 H         1 <0>         0.1389
     24 H4         -2.5457   -1.5781   -1.2537 H         1 <0>         0.1112
     25 H5         -1.1269   -0.8604   -2.0466 H         1 <0>         0.0591
     26 H6         -1.0727   -3.3316   -0.2815 H         1 <0>         0.0888
     27 H7         -1.1073   -3.3538   -2.0536 H         1 <0>         0.0959
     28 H8          1.1726   -3.6646   -1.2999 H         1 <0>         0.1110
     29 H9          1.0310   -2.0714   -2.0736 H         1 <0>         0.0585
     30 H10         3.1120    3.8369   -0.5267 H         1 <0>         0.4267
     31 H11         1.7165    6.0574   -0.0865 H         1 <0>         0.1788
     32 H12         1.6264    5.4833   -3.1685 H         1 <0>         0.1137
     33 H13         1.1609    7.0673   -2.3464 H         1 <0>         0.1277
     34 H14         3.5090    7.2708   -1.4089 H         1 <0>         0.1286
     35 H15         3.9746    5.6869   -2.2311 H         1 <0>         0.1145
     36 H16         2.0827    3.6976   -1.8058 H         1 <0>         0.4079
@<TRIPOS>BOND
     1    1    6 ar
     2    1    2 ar
     3    1   22 1
     4    2    3 ar
     5    2   13 1
     6    3    4 ar
     7    3   23 1
     8    4    5 ar
     9    4   12 1
    10    5   11 1
    11    5    6 ar
    12    6    7 1
    13    7    8 1
    14    8    9 1
    15    8   24 1
    16    8   25 1
    17    9   10 1
    18    9   26 1
    19    9   27 1
    20   10   11 1
    21   10   28 1
    22   10   29 1
    23   13   14 1
    24   13   15 1
    25   13   18 1
    26   15   16 2
    27   15   17 1
    28   18   19 1
    29   18   30 1
    30   18   36 1
    31   19   21 1
    32   19   20 1
    33   19   31 1
    34   20   21 1
    35   20   32 1
    36   20   33 1
    37   21   34 1
    38   21   35 1
@<TRIPOS>MOLECULE
ZINC43595339
   40    41     0     0     0
SMALL
USER_CHARGES

@<TRIPOS>ATOM
      1 C1         -0.0187    1.5258    0.0104 C.3       1 <0>        -0.1656
      2 C2          0.0021   -0.0041    0.0020 C.3       1 <0>         0.1955
      3 C3          0.7421   -0.5109    1.2415 C.3       1 <0>        -0.1576
      4 C4         -1.4117   -0.5257    0.0127 C.2       1 <0>         0.4605
      5 O1         -1.9370   -0.8260    1.0586 O.2       1 <0>        -0.4850
      6 O2         -2.0875   -0.6567   -1.1396 O.3       1 <0>        -0.3527
      7 C5         -3.4233   -1.1572   -1.0551 C.3       1 <0>         0.0309
      8 N1          0.6878   -0.4765   -1.2033 N.am      1 <0>        -0.7265
      9 C6          1.9715   -0.1323   -1.4270 C.2       1 <0>         0.5299
     10 O3          2.5590    0.5687   -0.6305 O.2       1 <0>        -0.4990
     11 C7          2.6769   -0.6183   -2.6669 C.3       1 <0>         0.1165
     12 H1          1.9904   -0.5746   -3.5124 H         1 <0>         0.0726
     13 C8          3.1224   -2.0422   -2.4604 C.ar      1 <0>        -0.0784
     14 C9          2.2505   -2.9231   -1.8371 C.ar      1 <0>        -0.1190
     15 C10         2.6160   -4.2378   -1.6305 C.ar      1 <0>        -0.1197
     16 C11         3.8575   -4.6810   -2.0476 C.ar      1 <0>        -0.1110
     17 C12         4.7266   -3.8056   -2.6669 C.ar      1 <0>        -0.1195
     18 C13         4.3615   -2.4836   -2.8723 C.ar      1 <0>        -0.0556
     19 C14         5.3474   -1.5612   -3.5422 C.3       1 <0>        -0.0815
     20 C15         4.6313   -0.3063   -4.0425 C.3       1 <0>         0.0562
     21 N2          3.8327    0.2430   -2.9360 N.3       1 <0>        -0.6601
     22 H2          1.0039    1.9031    0.0027 H         1 <0>         0.1002
     23 H3         -0.5459    1.8868   -0.8726 H         1 <0>         0.0674
     24 H4         -0.5289    1.8773    0.9072 H         1 <0>         0.0749
     25 H5          0.2319   -0.1594    2.1383 H         1 <0>         0.0800
     26 H6          0.7568   -1.6008    1.2356 H         1 <0>         0.0625
     27 H7          1.7647   -0.1336    1.2338 H         1 <0>         0.0965
     28 H8         -3.4113   -2.1512   -0.6079 H         1 <0>         0.0635
     29 H9         -4.0235   -0.4885   -0.4380 H         1 <0>         0.0638
     30 H10        -3.8541   -1.2136   -2.0547 H         1 <0>         0.1061
     31 H11         0.2179   -1.0371   -1.8404 H         1 <0>         0.4069
     32 H12         1.2804   -2.5780   -1.5114 H         1 <0>         0.1208
     33 H13         1.9338   -4.9190   -1.1437 H         1 <0>         0.1243
     34 H14         4.1466   -5.7094   -1.8889 H         1 <0>         0.1251
     35 H15         5.6963   -4.1519   -2.9929 H         1 <0>         0.1254
     36 H16         6.1197   -1.2765   -2.8277 H         1 <0>         0.0884
     37 H17         5.8084   -2.0752   -4.3856 H         1 <0>         0.0813
     38 H18         5.3667    0.4306   -4.3654 H         1 <0>         0.0888
     39 H19         3.9779   -0.5652   -4.8756 H         1 <0>         0.0404
     40 H20         3.5406    1.1873   -3.1388 H         1 <0>         0.3532
@<TRIPOS>BOND
     1    1    2 1
     2    1   22 1
     3    1   23 1
     4    1   24 1
     5    2    3 1
     6    2    4 1
     7    2    8 1
     8    3   25 1
     9    3   26 1
    10    3   27 1
    11    4    5 2
    12    4    6 1
    13    6    7 1
    14    7   28 1
    15    7   29 1
    16    7   30 1
    17    8    9 am
    18    8   31 1
    19    9   10 2
    20    9   11 1
    21   11   12 1
    22   11   21 1
    23   11   13 1
    24   13   18 ar
    25   13   14 ar
    26   14   15 ar
    27   14   32 1
    28   15   16 ar
    29   15   33 1
    30   16   17 ar
    31   16   34 1
    32   17   18 ar
    33   17   35 1
    34   18   19 1
    35   19   20 1
    36   19   36 1
    37   19   37 1
    38   20   21 1
    39   20   38 1
    40   20   39 1
    41   21   40 1
@<TRIPOS>MOLECULE
ZINC49428689
   38    39     0     0     0
SMALL
USER_CHARGES

@<TRIPOS>ATOM
      1 C1         -0.0187    1.5258    0.0104 C.3       1 <0>        -0.1616
      2 C2          0.0021   -0.0041    0.0020 C.3       1 <0>         0.1248
      3 H1          0.5293   -0.3651    0.8851 H         1 <0>         0.1196
      4 C3          0.7074   -0.4901   -1.2379 C.2       1 <0>         0.5131
      5 O1          0.1200   -1.1910   -2.0344 O.2       1 <0>        -0.5332
      6 N1          1.9912   -0.1458   -1.4616 N.am      1 <0>        -0.7173
      7 C4          2.6769   -0.6183   -2.6669 C.3       1 <0>         0.1390
      8 C5          3.3197   -1.9956   -2.4035 C.3       1 <0>        -0.1359
      9 C6          4.6541   -1.9484   -3.1886 C.3       1 <0>        -0.1254
     10 C7          5.1247   -0.4882   -2.9752 C.3       1 <0>        -0.1254
     11 C8          3.8245    0.3402   -3.0303 C.3       1 <0>        -0.1320
     12 N2         -1.3723   -0.5112    0.0124 N.am      1 <0>        -0.7046
     13 C9         -2.0286   -0.6552    1.1807 C.2       1 <0>         0.5666
     14 O2         -1.4804   -0.3645    2.2255 O.2       1 <0>        -0.5202
     15 C10        -3.4186   -1.1680    1.1913 C.ar      1 <0>        -0.0752
     16 C11        -4.0659   -1.5139    0.0006 C.ar      1 <0>        -0.1380
     17 C12        -5.3617   -1.9879    0.0555 C.ar      1 <0>         0.1212
     18 N3         -5.9879   -2.1160    1.2088 N.ar      1 <0>        -0.4599
     19 C13        -5.4151   -1.8017    2.3544 C.ar      1 <0>         0.1721
     20 C14        -4.1169   -1.3249    2.3915 C.ar      1 <0>        -0.0971
     21 Cl1        -6.2992   -1.9952    3.8358 Cl        1 <0>        -0.0159
     22 H2          1.0039    1.9031    0.0027 H         1 <0>         0.0750
     23 H3         -0.5459    1.8868   -0.8726 H         1 <0>         0.0668
     24 H4         -0.5289    1.8773    0.9072 H         1 <0>         0.0778
     25 H5          2.4610    0.4148   -0.8245 H         1 <0>         0.4031
     26 H6          1.9713   -0.6869   -3.4949 H         1 <0>         0.0940
     27 H7          3.5083   -2.1313   -1.3386 H         1 <0>         0.0705
     28 H8          2.6816   -2.7934   -2.7836 H         1 <0>         0.0717
     29 H9          5.3740   -2.6514   -2.7695 H         1 <0>         0.0704
     30 H10         4.4871   -2.1496   -4.2468 H         1 <0>         0.0706
     31 H11         5.6047   -0.3804   -2.0025 H         1 <0>         0.0680
     32 H12         5.8037   -0.1859   -3.7724 H         1 <0>         0.0702
     33 H13         3.6763    0.7361   -4.0351 H         1 <0>         0.0769
     34 H14         3.8712    1.1568   -2.3099 H         1 <0>         0.0722
     35 H15        -1.8100   -0.7432   -0.8215 H         1 <0>         0.4118
     36 H16        -3.5598   -1.4114   -0.9479 H         1 <0>         0.1496
     37 H17        -5.8695   -2.2570   -0.8589 H         1 <0>         0.1761
     38 H18        -3.6517   -1.0737    3.3332 H         1 <0>         0.1606
@<TRIPOS>BOND
     1    1    2 1
     2    1   22 1
     3    1   23 1
     4    1   24 1
     5    2    3 1
     6    2    4 1
     7    2   12 1
     8    4    5 2
     9    4    6 am
    10    6    7 1
    11    6   25 1
    12    7   11 1
    13    7    8 1
    14    7   26 1
    15    8    9 1
    16    8   27 1
    17    8   28 1
    18    9   10 1
    19    9   29 1
    20    9   30 1
    21   10   11 1
    22   10   31 1
    23   10   32 1
    24   11   33 1
    25   11   34 1
    26   12   13 am
    27   12   35 1
    28   13   14 2
    29   13   15 1
    30   15   20 ar
    31   15   16 ar
    32   16   17 ar
    33   16   36 1
    34   17   18 ar
    35   17   37 1
    36   18   19 ar
    37   19   20 ar
    38   19   21 1
    39   20   38 1
@<TRIPOS>MOLECULE
ZINC12534890
   41    42     0     0     0
SMALL
USER_CHARGES

@<TRIPOS>ATOM
      1 C1          0.5179   -1.2847   -0.6574 C.3       1 <0>        -0.1814
      2 C2          0.0021   -0.0041    0.0020 C.3       1 <0>         0.0626
      3 H1          0.3151    0.8588   -0.5859 H         1 <0>         0.1055
      4 C3          0.5661    0.1060    1.3951 C.2       1 <0>         0.5244
      5 O1         -0.1403   -0.1192    2.3549 O.2       1 <0>        -0.5243
      6 N1          1.8556    0.4546    1.5745 N.am      1 <0>        -0.8569
      7 N2         -1.4648   -0.0446    0.0694 N.3       1 <0>        -0.5140
      8 C4         -2.0602    0.2400   -1.2430 C.3       1 <0>         0.0403
      9 C5         -3.5800    0.3673   -1.0939 C.3       1 <0>         0.1502
     10 N3         -4.0874   -0.8431   -0.4301 N.pl3     1 <0>        -0.6803
     11 C6         -3.4466   -1.2700    0.8230 C.3       1 <0>         0.1508
     12 C7         -1.9321   -1.3329    0.5985 C.3       1 <0>         0.0362
     13 C8         -5.1450   -1.5644   -0.9726 C.ar      1 <0>         0.1768
     14 C9         -4.8920   -2.6003   -1.8676 C.ar      1 <0>        -0.1114
     15 C10        -5.9253   -3.3135   -2.4042 C.ar      1 <0>        -0.0641
     16 C11        -7.2465   -3.0051   -2.0556 C.ar      1 <0>        -0.1508
     17 C12        -7.5045   -1.9629   -1.1549 C.ar      1 <0>        -0.1035
     18 C13        -6.4564   -1.2519   -0.6142 C.ar      1 <0>         0.0787
     19 F1         -6.6982   -0.2497    0.2590 F         1 <0>        -0.1284
     20 C14        -8.3575   -3.7709   -2.6324 C.2       1 <0>         0.3967
     21 O2         -8.1324   -4.6725   -3.4123 O.2       1 <0>        -0.4525
     22 C15        -9.7781   -3.4374   -2.2560 C.3       1 <0>        -0.2030
     23 H2          1.6063   -1.2546   -0.7074 H         1 <0>         0.0681
     24 H3          0.2049   -2.1476   -0.0695 H         1 <0>         0.0680
     25 H4          0.1099   -1.3643   -1.6650 H         1 <0>         0.0691
     26 H5          2.4206    0.6346    0.8069 H         1 <0>         0.4004
     27 H6          2.2187    0.5254    2.4712 H         1 <0>         0.4035
     28 H7         -1.6534    1.1733   -1.6323 H         1 <0>         0.0832
     29 H8         -1.8291   -0.5730   -1.9312 H         1 <0>         0.0402
     30 H9         -3.8165    1.2429   -0.4894 H         1 <0>         0.0639
     31 H10        -4.0376    0.4641   -2.0785 H         1 <0>         0.0743
     32 H11        -3.6704   -0.5518    1.6118 H         1 <0>         0.0648
     33 H12        -3.8161   -2.2557    1.1059 H         1 <0>         0.0725
     34 H13        -1.7027   -2.1240   -0.1154 H         1 <0>         0.0369
     35 H14        -1.4324   -1.5403    1.5448 H         1 <0>         0.1014
     36 H15        -3.8746   -2.8405   -2.1388 H         1 <0>         0.1359
     37 H16        -5.7238   -4.1159   -3.0984 H         1 <0>         0.1403
     38 H17        -8.5212   -1.7207   -0.8830 H         1 <0>         0.1472
     39 H18       -10.1721   -2.6929   -2.9478 H         1 <0>         0.1005
     40 H19       -10.3885   -4.3391   -2.3062 H         1 <0>         0.0911
     41 H20        -9.8012   -3.0390   -1.2417 H         1 <0>         0.0871
@<TRIPOS>BOND
     1    1    2 1
     2    1   23 1
     3    1   24 1
     4    1   25 1
     5    2    3 1
     6    2    4 1
     7    2    7 1
     8    4    5 2
     9    4    6 am
    10    6   26 1
    11    6   27 1
    12    7   12 1
    13    7    8 1
    14    8    9 1
    15    8   28 1
    16    8   29 1
    17    9   10 1
    18    9   30 1
    19    9   31 1
    20   10   11 1
    21   10   13 1
    22   11   12 1
    23   11   32 1
    24   11   33 1
    25   12   34 1
    26   12   35 1
    27   13   18 ar
    28   13   14 ar
    29   14   15 ar
    30   14   36 1
    31   15   16 ar
    32   15   37 1
    33   16   17 ar
    34   16   20 1
    35   17   18 ar
    36   17   38 1
    37   18   19 1
    38   20   21 2
    39   20   22 1
    40   22   39 1
    41   22   40 1
    42   22   41 1
@<TRIPOS>MOLECULE
ZINC63086130
   38    38     0     0     0
SMALL
USER_CHARGES

@<TRIPOS>ATOM
      1 C1         -0.0184    1.5028    0.0103 C.3       1 <0>        -0.1205
      2 C2          0.0021   -0.0041    0.0020 C.ar      1 <0>        -0.0576
      3 C3          0.0057   -0.6882   -1.2000 C.ar      1 <0>        -0.0758
      4 C4          0.0240   -2.0707   -1.2121 C.ar      1 <0>        -0.6271
      5 C5          0.0391   -2.7732   -0.0230 C.ar      1 <0>        -0.1045
      6 C6          0.0360   -2.0893    1.1859 C.ar      1 <0>         0.2034
      7 C7          0.0228   -0.7000    1.1944 C.ar      1 <0>        -0.1105
      8 C8          0.0251    0.0464    2.5036 C.3       1 <0>        -0.1171
      9 N1          0.0513   -2.7965    2.3902 N.pl3     1 <0>        -0.8755
     10 S1          0.0274   -2.9373   -2.7463 S.o2      1 <0>         2.6840
     11 O1         -0.5050   -4.2285   -2.4845 O.2       1 <0>        -0.9518
     12 O2         -0.5403   -2.0602   -3.7094 O.2       1 <0>        -0.9486
     13 N2          1.6101   -3.1571   -3.1810 N.pl3     1 <0>        -0.9987
     14 C9          2.3281   -4.3589   -2.7493 C.3       1 <0>         0.0868
     15 C10         2.2922   -2.1498   -3.9972 C.3       1 <0>         0.1461
     16 H1          1.6035   -1.3345   -4.2187 H         1 <0>         0.1106
     17 C11         3.4988   -1.6042   -3.2308 C.3       1 <0>        -0.1642
     18 C12         2.7648   -2.7879   -5.3051 C.3       1 <0>        -0.0341
     19 C13         1.5966   -3.2053   -6.0975 C.1       1 <0>         0.1924
     20 N3          0.6951   -3.5274   -6.7090 N.1       1 <0>        -0.4182
     21 H2          1.0042    1.8801    0.0026 H         1 <0>         0.0757
     22 H3         -0.5455    1.8639   -0.8728 H         1 <0>         0.0726
     23 H4         -0.5286    1.8543    0.9071 H         1 <0>         0.0716
     24 H5         -0.0061   -0.1414   -2.1312 H         1 <0>         0.1361
     25 H6          0.0530   -3.8531   -0.0331 H         1 <0>         0.1357
     26 H7         -1.0019    0.2123    2.8290 H         1 <0>         0.0742
     27 H8          0.5541   -0.5398    3.2551 H         1 <0>         0.0643
     28 H9          0.5247    1.0064    2.3736 H         1 <0>         0.0762
     29 H10         0.0641   -3.7664    2.3830 H         1 <0>         0.4013
     30 H11         0.0491   -2.3178    3.2339 H         1 <0>         0.4004
     31 H12         2.2043   -5.1438   -3.4954 H         1 <0>         0.0623
     32 H13         3.3875   -4.1284   -2.6368 H         1 <0>         0.0819
     33 H14         1.9268   -4.6986   -1.7945 H         1 <0>         0.0736
     34 H15         4.0064   -0.8547   -3.8381 H         1 <0>         0.0770
     35 H16         3.1622   -1.1496   -2.2991 H         1 <0>         0.0686
     36 H17         4.1875   -2.4195   -3.0093 H         1 <0>         0.0694
     37 H18         3.3487   -2.0633   -5.8726 H         1 <0>         0.1245
     38 H19         3.3825   -3.6579   -5.0825 H         1 <0>         0.1153
@<TRIPOS>BOND
     1    1    2 1
     2    1   21 1
     3    1   22 1
     4    1   23 1
     5    2    7 ar
     6    2    3 ar
     7    3    4 ar
     8    3   24 1
     9    4    5 ar
    10    4   10 1
    11    5    6 ar
    12    5   25 1
    13    6    7 ar
    14    6    9 1
    15    7    8 1
    16    8   26 1
    17    8   27 1
    18    8   28 1
    19    9   29 1
    20    9   30 1
    21   10   11 2
    22   10   12 2
    23   10   13 1
    24   13   14 1
    25   13   15 1
    26   14   31 1
    27   14   32 1
    28   14   33 1
    29   15   16 1
    30   15   17 1
    31   15   18 1
    32   17   34 1
    33   17   35 1
    34   17   36 1
    35   18   19 1
    36   18   37 1
    37   18   38 1
    38   19   20 3
@<TRIPOS>MOLECULE
ZINC16626655
   47    49     0     0     0
SMALL
USER_CHARGES
5-amino-1-(4-isopropylphenyl)-N-(2-methoxyphenyl)triazole-4-carboxamide
@<TRIPOS>ATOM
      1 C1         -3.3708    3.4572   -1.2566 C.3       1 <0>        -0.1469
      2 C2         -2.5727    3.8326   -0.0064 C.3       1 <0>        -0.0593
      3 C3         -3.3650    3.4388    1.2418 C.3       1 <0>        -0.1472
      4 C4         -1.2536    3.1039   -0.0149 C.ar      1 <0>        -0.0674
      5 C5         -1.2291    1.7214   -0.0309 C.ar      1 <0>        -0.0912
      6 C6         -0.0217    1.0507   -0.0338 C.ar      1 <0>        -0.0957
      7 C7          1.1681    1.7661   -0.0313 C.ar      1 <0>         0.1336
      8 C8          1.1403    3.1540   -0.0205 C.ar      1 <0>        -0.1335
      9 C9         -0.0702    3.8191   -0.0123 C.ar      1 <0>        -0.0918
     10 N1          2.3955    1.0880   -0.0391 N.pl3     1 <0>        -0.3563
     11 C10         3.5367    1.4810   -0.6705 C.2       1 <0>         0.4179
     12 C11         4.4879    0.5054   -0.3980 C.2       1 <0>        -0.1808
     13 N2          3.9098   -0.4391    0.3674 N.2       1 <0>        -0.1667
     14 N3          2.6829   -0.1278    0.5961 N.2       1 <0>        -0.0598
     15 C12         5.8784    0.5021   -0.8679 C.2       1 <0>         0.6208
     16 O1          6.2895    1.4159   -1.5587 O.2       1 <0>        -0.5380
     17 N4          6.7001   -0.5129   -0.5344 N.am      1 <0>        -0.6459
     18 C13         7.9903   -0.5765   -1.0761 C.ar      1 <0>         0.1227
     19 C14         8.2674    0.0411   -2.2871 C.ar      1 <0>        -0.0959
     20 C15         9.5424   -0.0185   -2.8169 C.ar      1 <0>        -0.1347
     21 C16        10.5415   -0.7016   -2.1481 C.ar      1 <0>        -0.0982
     22 C17        10.2714   -1.3243   -0.9437 C.ar      1 <0>        -0.1883
     23 C18         8.9972   -1.2648   -0.4031 C.ar      1 <0>         0.0992
     24 O2          8.7300   -1.8772    0.7812 O.3       1 <0>        -0.3191
     25 C19         9.8110   -2.5643    1.4147 C.3       1 <0>         0.0293
     26 N5          3.7136    2.6211   -1.4270 N.pl3     1 <0>        -0.8102
     27 H1         -4.3248    3.9843   -1.2505 H         1 <0>         0.0621
     28 H2         -2.8063    3.7378   -2.1459 H         1 <0>         0.0572
     29 H3         -3.5497    2.3820   -1.2641 H         1 <0>         0.0584
     30 H4         -2.3937    4.9078    0.0011 H         1 <0>         0.0819
     31 H5         -2.7964    3.7062    2.1325 H         1 <0>         0.0577
     32 H6         -4.3190    3.9658    1.2479 H         1 <0>         0.0621
     33 H7         -3.5439    2.3636    1.2343 H         1 <0>         0.0586
     34 H8         -2.1550    1.1655   -0.0373 H         1 <0>         0.1369
     35 H9         -0.0032   -0.0291   -0.0425 H         1 <0>         0.1395
     36 H10         2.0643    3.7131   -0.0189 H         1 <0>         0.1302
     37 H11        -0.0924    4.8989   -0.0043 H         1 <0>         0.1370
     38 H12         6.3979   -1.1993    0.0807 H         1 <0>         0.4234
     39 H13         7.4879    0.5715   -2.8138 H         1 <0>         0.1529
     40 H14         9.7579    0.4658   -3.7579 H         1 <0>         0.1281
     41 H15        11.5354   -0.7491   -2.5679 H         1 <0>         0.1263
     42 H16        11.0539   -1.8576   -0.4242 H         1 <0>         0.1323
     43 H17        10.6161   -1.8600    1.6243 H         1 <0>         0.0562
     44 H18         9.4630   -3.0066    2.3482 H         1 <0>         0.1017
     45 H19        10.1784   -3.3503    0.7550 H         1 <0>         0.0566
     46 H20         2.9768    3.2396   -1.5516 H         1 <0>         0.4082
     47 H21         4.5747    2.8042   -1.8342 H         1 <0>         0.4361
@<TRIPOS>BOND
     1    1    2 1
     2    1   27 1
     3    1   28 1
     4    1   29 1
     5    2    3 1
     6    2    4 1
     7    2   30 1
     8    3   31 1
     9    3   32 1
    10    3   33 1
    11    4    9 ar
    12    4    5 ar
    13    5    6 ar
    14    5   34 1
    15    6    7 ar
    16    6   35 1
    17    7    8 ar
    18    7   10 1
    19    8    9 ar
    20    8   36 1
    21    9   37 1
    22   10   14 1
    23   10   11 1
    24   11   12 2
    25   11   26 1
    26   12   13 1
    27   12   15 1
    28   13   14 2
    29   15   16 2
    30   15   17 am
    31   17   18 1
    32   17   38 1
    33   18   23 ar
    34   18   19 ar
    35   19   20 ar
    36   19   39 1
    37   20   21 ar
    38   20   40 1
    39   21   22 ar
    40   21   41 1
    41   22   23 ar
    42   22   42 1
    43   23   24 1
    44   24   25 1
    45   25   43 1
    46   25   44 1
    47   25   45 1
    48   26   46 1
    49   26   47 1
@<TRIPOS>MOLECULE
ZINC40797066
   44    47     0     0     0
SMALL
USER_CHARGES

@<TRIPOS>ATOM
      1 C1          0.7492   -0.0460   -1.1322 C.3       1 <0>         0.0251
      2 O1         -0.0065    0.0004    0.0797 O.3       1 <0>        -0.3146
      3 C2         -1.2086   -0.6352    0.0822 C.ar      1 <0>         0.1325
      4 C3         -1.6471   -1.2940   -1.0569 C.ar      1 <0>        -0.1935
      5 C4         -2.8679   -1.9401   -1.0542 C.ar      1 <0>        -0.0704
      6 C5         -3.6555   -1.9300    0.0878 C.ar      1 <0>         0.0558
      7 C6         -3.2168   -1.2710    1.2270 C.ar      1 <0>        -0.0736
      8 C7         -1.9936   -0.6296    1.2258 C.ar      1 <0>        -0.1378
      9 O2         -4.8574   -2.5655    0.0903 O.3       1 <0>        -0.2407
     10 C8         -4.8641   -3.9160   -0.0374 C.ar      1 <0>         0.3122
     11 C9         -6.0681   -4.6104   -0.1510 C.ar      1 <0>         0.0647
     12 C10        -6.0183   -6.0005   -0.2808 C.ar      1 <0>         0.3823
     13 N1         -4.8327   -6.6044   -0.2909 N.ar      1 <0>        -0.5368
     14 C11        -3.7187   -5.9096   -0.1809 C.ar      1 <0>         0.3154
     15 N2         -3.7226   -4.5971   -0.0618 N.ar      1 <0>        -0.5490
     16 N3         -7.1890   -6.7412   -0.3970 N.pl3     1 <0>        -0.6436
     17 C12        -7.1352   -8.1329   -0.3986 C.ar      1 <0>         0.1822
     18 C13        -6.0794   -8.7901    0.1993 C.ar      1 <0>        -0.1334
     19 C14        -6.0196  -10.1794    0.2013 C.ar      1 <0>        -0.0701
     20 C15        -6.9955  -10.9281   -0.3838 C.ar      1 <0>        -0.1218
     21 C16        -8.0884  -10.2996   -1.0039 C.ar      1 <0>         0.1467
     22 C17        -8.1625   -8.8848   -1.0063 C.ar      1 <0>        -0.1221
     23 C18        -9.2596   -8.2596   -1.6226 C.ar      1 <0>        -0.0610
     24 C19       -10.2175   -9.0513   -2.1919 C.ar      1 <0>        -0.1764
     25 C20       -10.0882  -10.4371   -2.1499 C.ar      1 <0>         0.1333
     26 N4         -9.0567  -11.0167   -1.5845 N.ar      1 <0>        -0.4712
     27 N5         -7.2959   -3.9314   -0.1350 N.pl3     1 <0>        -0.8644
     28 H1          1.6841    0.4984   -0.9985 H         1 <0>         0.1028
     29 H2          0.9661   -1.0836   -1.3858 H         1 <0>         0.0579
     30 H3          0.1740    0.4121   -1.9369 H         1 <0>         0.0569
     31 H4         -1.0342   -1.3016   -1.9460 H         1 <0>         0.1344
     32 H5         -3.2095   -2.4527   -1.9413 H         1 <0>         0.1262
     33 H6         -3.8298   -1.2632    2.1161 H         1 <0>         0.1373
     34 H7         -1.6502   -0.1201    2.1140 H         1 <0>         0.1401
     35 H8         -2.7731   -6.4312   -0.1928 H         1 <0>         0.2034
     36 H9         -8.0433   -6.2888   -0.4770 H         1 <0>         0.4137
     37 H10        -5.2919   -8.2202    0.6698 H         1 <0>         0.1560
     38 H11        -5.1842  -10.6736    0.6750 H         1 <0>         0.1337
     39 H12        -6.9289  -12.0060   -0.3714 H         1 <0>         0.1354
     40 H13        -9.3439   -7.1832   -1.6455 H         1 <0>         0.1280
     41 H14       -11.0738   -8.6026   -2.6734 H         1 <0>         0.1384
     42 H15       -10.8525  -11.0505   -2.6037 H         1 <0>         0.1608
     43 H16        -7.3151   -2.9659   -0.0439 H         1 <0>         0.4111
     44 H17        -8.1256   -4.4276   -0.2149 H         1 <0>         0.3944
@<TRIPOS>BOND
     1    1    2 1
     2    1   28 1
     3    1   29 1
     4    1   30 1
     5    2    3 1
     6    3    8 ar
     7    3    4 ar
     8    4    5 ar
     9    4   31 1
    10    5    6 ar
    11    5   32 1
    12    6    7 ar
    13    6    9 1
    14    7    8 ar
    15    7   33 1
    16    8   34 1
    17    9   10 1
    18   10   15 ar
    19   10   11 ar
    20   11   12 ar
    21   11   27 1
    22   12   13 ar
    23   12   16 1
    24   13   14 ar
    25   14   15 ar
    26   14   35 1
    27   16   17 1
    28   16   36 1
    29   17   22 ar
    30   17   18 ar
    31   18   19 ar
    32   18   37 1
    33   19   20 ar
    34   19   38 1
    35   20   21 ar
    36   20   39 1
    37   21   26 ar
    38   21   22 ar
    39   22   23 ar
    40   23   24 ar
    41   23   40 1
    42   24   25 ar
    43   24   41 1
    44   25   26 ar
    45   25   42 1
    46   27   43 1
    47   27   44 1
@<TRIPOS>MOLECULE
ZINC05164672
   49    52     0     0     0
SMALL
USER_CHARGES

@<TRIPOS>ATOM
      1 C1         -0.0187    1.5258    0.0104 C.3       1 <0>        -0.1532
      2 C2          0.0021   -0.0041    0.0020 C.3       1 <0>         0.0552
      3 O1          0.6709   -0.4649   -1.1737 O.3       1 <0>        -0.3172
      4 C3          0.7768   -1.8100   -1.3361 C.ar      1 <0>         0.1303
      5 C4          0.2427   -2.6687   -0.3864 C.ar      1 <0>        -0.2065
      6 C5          0.3511   -4.0357   -0.5541 C.ar      1 <0>        -0.0656
      7 C6          0.9917   -4.5482   -1.6671 C.ar      1 <0>        -0.1088
      8 C7          1.5253   -3.6944   -2.6148 C.ar      1 <0>        -0.0588
      9 C8          1.4140   -2.3268   -2.4548 C.ar      1 <0>        -0.1514
     10 C9          1.1090   -6.0397   -1.8472 C.3       1 <0>         0.1259
     11 H1          0.6351   -6.5500   -1.0087 H         1 <0>         0.0951
     12 C10         0.4427   -6.4506   -3.1352 C.2       1 <0>        -0.2443
     13 C11        -0.8748   -6.5091   -3.4447 C.2       1 <0>         0.1771
     14 N1         -0.9678   -6.9407   -4.7378 N.pl3     1 <0>        -0.4562
     15 H2         -1.7886   -7.0792   -5.2358 H         1 <0>         0.4522
     16 N2          0.3346   -7.1477   -5.2181 N.2       1 <0>        -0.2475
     17 C12         1.1762   -6.8575   -4.2669 C.2       1 <0>         0.2695
     18 O2          2.5360   -6.9071   -4.2645 O.3       1 <0>        -0.2103
     19 C13         3.1589   -6.8183   -3.0727 C.2       1 <0>         0.4408
     20 C14         2.5635   -6.4303   -1.9244 C.2       1 <0>        -0.2658
     21 C15         3.3474   -6.3871   -0.7269 C.1       1 <0>         0.2727
     22 N3          3.9693   -6.3528    0.2232 N.1       1 <0>        -0.4426
     23 N4          4.4908   -7.1461   -3.0220 N.pl3     1 <0>        -0.8309
     24 C16        -2.0030   -6.1695   -2.5492 C.ar      1 <0>        -0.0001
     25 C17        -2.0100   -6.6225   -1.2294 C.ar      1 <0>        -0.1227
     26 C18        -3.0632   -6.3037   -0.3968 C.ar      1 <0>        -0.0747
     27 C19        -4.1130   -5.5359   -0.8661 C.ar      1 <0>        -0.1931
     28 C20        -4.1146   -5.0813   -2.1776 C.ar      1 <0>         0.1325
     29 C21        -3.0594   -5.3910   -3.0197 C.ar      1 <0>        -0.1309
     30 O3         -5.1493   -4.3277   -2.6341 O.3       1 <0>        -0.3156
     31 C22        -6.2011   -4.0420   -1.7099 C.3       1 <0>         0.0260
     32 H3          1.0039    1.9031    0.0027 H         1 <0>         0.0666
     33 H4         -0.5459    1.8868   -0.8726 H         1 <0>         0.0663
     34 H5         -0.5289    1.8773    0.9072 H         1 <0>         0.0784
     35 H6          0.5293   -0.3651    0.8851 H         1 <0>         0.0614
     36 H7         -1.0205   -0.3814    0.0098 H         1 <0>         0.0609
     37 H8         -0.2572   -2.2689    0.4835 H         1 <0>         0.1254
     38 H9         -0.0645   -4.7046    0.1850 H         1 <0>         0.1227
     39 H10         2.0255   -4.0972   -3.4831 H         1 <0>         0.1208
     40 H11         1.8270   -1.6604   -3.1976 H         1 <0>         0.1283
     41 H12         4.9515   -7.4299   -3.8271 H         1 <0>         0.4121
     42 H13         4.9715   -7.0939   -2.1811 H         1 <0>         0.4268
     43 H14        -1.1917   -7.2227   -0.8599 H         1 <0>         0.1331
     44 H15        -3.0676   -6.6553    0.6244 H         1 <0>         0.1335
     45 H16        -4.9348   -5.2894   -0.2100 H         1 <0>         0.1322
     46 H17        -3.0572   -5.0342   -4.0390 H         1 <0>         0.1327
     47 H18        -6.9612   -3.4345   -2.2009 H         1 <0>         0.1027
     48 H19        -6.6474   -4.9756   -1.3674 H         1 <0>         0.0577
     49 H20        -5.7968   -3.4979   -0.8562 H         1 <0>         0.0574
@<TRIPOS>BOND
     1    1    2 1
     2    1   32 1
     3    1   33 1
     4    1   34 1
     5    2    3 1
     6    2   35 1
     7    2   36 1
     8    3    4 1
     9    4    9 ar
    10    4    5 ar
    11    5    6 ar
    12    5   37 1
    13    6    7 ar
    14    6   38 1
    15    7    8 ar
    16    7   10 1
    17    8    9 ar
    18    8   39 1
    19    9   40 1
    20   10   11 1
    21   10   20 1
    22   10   12 1
    23   12   17 1
    24   12   13 2
    25   13   14 1
    26   13   24 1
    27   14   15 1
    28   14   16 1
    29   16   17 2
    30   17   18 1
    31   18   19 1
    32   19   20 2
    33   19   23 1
    34   20   21 1
    35   21   22 3
    36   23   41 1
    37   23   42 1
    38   24   29 ar
    39   24   25 ar
    40   25   26 ar
    41   25   43 1
    42   26   27 ar
    43   26   44 1
    44   27   28 ar
    45   27   45 1
    46   28   29 ar
    47   28   30 1
    48   29   46 1
    49   30   31 1
    50   31   47 1
    51   31   48 1
    52   31   49 1
@<TRIPOS>MOLECULE
ZINC00803866
   49    51     0     0     0
SMALL
USER_CHARGES

@<TRIPOS>ATOM
      1 C1         -0.0187    1.5258    0.0104 C.3       1 <0>        -0.1396
      2 C2          0.0021   -0.0041    0.0020 C.3       1 <0>        -0.0306
      3 C3          0.7421   -0.5109    1.2415 C.3       1 <0>        -0.1383
      4 C4         -1.4333   -0.5336    0.0129 C.3       1 <0>        -0.1450
      5 C5          0.7074   -0.4901   -1.2379 C.ar      1 <0>        -0.0680
      6 C6          0.0361   -1.2843   -2.1485 C.ar      1 <0>        -0.1176
      7 C7          0.6831   -1.7301   -3.2859 C.ar      1 <0>        -0.1142
      8 C8          2.0014   -1.3813   -3.5127 C.ar      1 <0>        -0.0804
      9 C9          2.6724   -0.5863   -2.6025 C.ar      1 <0>        -0.0940
     10 C10         2.0241   -0.1370   -1.4673 C.ar      1 <0>        -0.1128
     11 C11         2.7070   -1.8681   -4.7521 C.3       1 <0>         0.1201
     12 H1          2.0268   -2.4773   -5.3474 H         1 <0>         0.0925
     13 C12         3.9132   -2.6843   -4.3634 C.2       1 <0>        -0.2397
     14 C13         3.9795   -3.9147   -3.8328 C.2       1 <0>         0.1404
     15 N1          5.2870   -4.2167   -3.6594 N.pl3     1 <0>        -0.4526
     16 H2          5.6366   -5.0437   -3.2921 H         1 <0>         0.4508
     17 N2          6.0495   -3.1249   -4.1035 N.2       1 <0>        -0.2452
     18 C14         5.2317   -2.2052   -4.5267 C.2       1 <0>         0.2707
     19 O1          5.4931   -0.9770   -5.0492 O.3       1 <0>        -0.2102
     20 C15         4.4777   -0.3325   -5.6577 C.2       1 <0>         0.4413
     21 C16         3.1788   -0.6893   -5.5654 C.2       1 <0>        -0.2631
     22 C17         2.2043    0.0861   -6.2724 C.1       1 <0>         0.2721
     23 N3          1.4313    0.7013   -6.8332 N.1       1 <0>        -0.4417
     24 N4          4.7855    0.7635   -6.4248 N.pl3     1 <0>        -0.8308
     25 C18         2.8090   -4.8004   -3.4916 C.3       1 <0>        -0.0566
     26 C19         2.3844   -5.5665   -4.7179 C.2       1 <0>         0.4599
     27 O2          2.9720   -5.4093   -5.7619 O.2       1 <0>        -0.4877
     28 O3          1.3535   -6.4234   -4.6505 O.3       1 <0>        -0.3498
     29 C20         1.0056   -7.1157   -5.8512 C.3       1 <0>         0.0329
     30 H3          1.0039    1.9031    0.0027 H         1 <0>         0.0566
     31 H4         -0.5459    1.8868   -0.8726 H         1 <0>         0.0562
     32 H5         -0.5289    1.8773    0.9072 H         1 <0>         0.0585
     33 H6          0.2319   -0.1594    2.1383 H         1 <0>         0.0582
     34 H7          0.7568   -1.6008    1.2356 H         1 <0>         0.0565
     35 H8          1.7647   -0.1336    1.2338 H         1 <0>         0.0565
     36 H9         -1.9605   -0.1726   -0.8702 H         1 <0>         0.0586
     37 H10        -1.4185   -1.6235    0.0069 H         1 <0>         0.0592
     38 H11        -1.9435   -0.1821    0.9097 H         1 <0>         0.0581
     39 H12        -0.9938   -1.5568   -1.9713 H         1 <0>         0.1266
     40 H13         0.1588   -2.3512   -3.9970 H         1 <0>         0.1200
     41 H14         3.7024   -0.3141   -2.7796 H         1 <0>         0.1143
     42 H15         2.5473    0.4872   -0.7580 H         1 <0>         0.1192
     43 H16         5.7081    1.0493   -6.5141 H         1 <0>         0.4122
     44 H17         4.0803    1.2521   -6.8775 H         1 <0>         0.4268
     45 H18         3.0994   -5.5006   -2.7083 H         1 <0>         0.1276
     46 H19         1.9791   -4.1869   -3.1411 H         1 <0>         0.1404
     47 H20         1.8565   -7.7072   -6.1891 H         1 <0>         0.0623
     48 H21         0.1588   -7.7744   -5.6585 H         1 <0>         0.1058
     49 H22         0.7362   -6.3935   -6.6219 H         1 <0>         0.0637
@<TRIPOS>BOND
     1    1    2 1
     2    1   30 1
     3    1   31 1
     4    1   32 1
     5    2    3 1
     6    2    4 1
     7    2    5 1
     8    3   33 1
     9    3   34 1
    10    3   35 1
    11    4   36 1
    12    4   37 1
    13    4   38 1
    14    5   10 ar
    15    5    6 ar
    16    6    7 ar
    17    6   39 1
    18    7    8 ar
    19    7   40 1
    20    8    9 ar
    21    8   11 1
    22    9   10 ar
    23    9   41 1
    24   10   42 1
    25   11   12 1
    26   11   21 1
    27   11   13 1
    28   13   18 1
    29   13   14 2
    30   14   15 1
    31   14   25 1
    32   15   16 1
    33   15   17 1
    34   17   18 2
    35   18   19 1
    36   19   20 1
    37   20   21 2
    38   20   24 1
    39   21   22 1
    40   22   23 3
    41   24   43 1
    42   24   44 1
    43   25   26 1
    44   25   45 1
    45   25   46 1
    46   26   27 2
    47   26   28 1
    48   28   29 1
    49   29   47 1
    50   29   48 1
    51   29   49 1
