@<TRIPOS>MOLECULE
CHEMBL298482
   41    43     0     0     0
SMALL
USER_CHARGES

@<TRIPOS>ATOM
      1 C1         -0.0162    1.3409    0.0094 C.2       1 <0>        -0.2184
      2 C2          1.3313    1.7689   -0.0012 C.2       1 <0>        -0.1688
      3 C3          2.0923    0.6599   -0.0144 C.2       1 <0>        -0.0324
      4 O1          1.2819   -0.4111   -0.0124 O.3       1 <0>        -0.1698
      5 C4          0.0021   -0.0041    0.0020 C.2       1 <0>        -0.0207
      6 C5          3.5989    0.6249   -0.0294 C.3       1 <0>         0.1402
      7 O2          4.0883    0.6069    1.3130 O.3       1 <0>        -0.2919
      8 C6          5.4362    0.5748    1.4776 C.ar      1 <0>         0.1691
      9 C7          6.2713    0.5666    0.3724 C.ar      1 <0>        -0.1984
     10 C8          7.6440    0.5338    0.5404 C.ar      1 <0>         0.0167
     11 C9          8.1927    0.5091    1.8120 C.ar      1 <0>        -0.1354
     12 C10         7.3733    0.5169    2.9230 C.ar      1 <0>         0.0166
     13 C11         5.9865    0.5557    2.7647 C.ar      1 <0>        -0.0740
     14 C12         5.1044    0.5708    3.9494 C.2       1 <0>        -0.0847
     15 C13         5.2795   -0.3181    4.9180 C.2       1 <0>        -0.1447
     16 C14         4.3795   -0.3026    6.1266 C.3       1 <0>         0.1457
     17 C15         3.7381   -1.6814    6.3040 C.3       1 <0>        -0.1480
     18 C16         2.7922   -1.6502    7.5087 C.3       1 <0>         0.1045
     19 H1          2.3237   -2.6269    7.6305 H         1 <0>         0.0816
     20 C17         1.7119   -0.5890    7.2638 C.3       1 <0>        -0.2045
     21 C18         2.3964    0.7095    6.8971 C.2       1 <0>         0.4978
     22 O3          2.0963    1.7456    7.4414 O.2       1 <0>        -0.4511
     23 O4          3.3513    0.6773    5.9445 O.3       1 <0>        -0.3673
     24 O5          3.5297   -1.3227    8.6881 O.3       1 <0>        -0.5635
     25 Cl1         8.0661    0.4852    4.5145 Cl        1 <0>        -0.0357
     26 Cl2         8.6841    0.5232   -0.8494 Cl        1 <0>        -0.0470
     27 H2         -0.8920    1.9726    0.0252 H         1 <0>         0.1535
     28 H3          1.6822    2.7903    0.0004 H         1 <0>         0.1528
     29 H4         -0.8653   -0.6475    0.0072 H         1 <0>         0.2077
     30 H5          3.9364   -0.2706   -0.5512 H         1 <0>         0.0858
     31 H6          3.9777    1.5089   -0.5424 H         1 <0>         0.1001
     32 H7          5.8501    0.5854   -0.6218 H         1 <0>         0.1480
     33 H8          9.2654    0.4832    1.9347 H         1 <0>         0.1496
     34 H9          4.3168    1.3058    4.0268 H         1 <0>         0.1397
     35 H10         6.0671   -1.0530    4.8406 H         1 <0>         0.1360
     36 H11         4.9644   -0.0560    7.0127 H         1 <0>         0.0978
     37 H12         3.1756   -1.9389    5.4065 H         1 <0>         0.0981
     38 H13         4.5164   -2.4257    6.4718 H         1 <0>         0.1007
     39 H14         1.0637   -0.9062    6.4469 H         1 <0>         0.1189
     40 H15         1.1213   -0.4501    8.1694 H         1 <0>         0.1087
     41 H16         2.9918   -1.2855    9.4907 H         1 <0>         0.3868
@<TRIPOS>BOND
     1    1    5 2
     2    1    2 1
     3    1   27 1
     4    2    3 2
     5    2   28 1
     6    3    4 1
     7    3    6 1
     8    4    5 1
     9    5   29 1
    10    6    7 1
    11    6   30 1
    12    6   31 1
    13    7    8 1
    14    8   13 ar
    15    8    9 ar
    16    9   10 ar
    17    9   32 1
    18   10   11 ar
    19   10   26 1
    20   11   12 ar
    21   11   33 1
    22   12   13 ar
    23   12   25 1
    24   13   14 1
    25   14   15 2
    26   14   34 1
    27   15   16 1
    28   15   35 1
    29   16   23 1
    30   16   17 1
    31   16   36 1
    32   17   18 1
    33   17   37 1
    34   17   38 1
    35   18   19 1
    36   18   20 1
    37   18   24 1
    38   20   21 1
    39   20   39 1
    40   20   40 1
    41   21   22 2
    42   21   23 1
    43   24   41 1
@<TRIPOS>MOLECULE
CHEMBL298482__1
   41    43     0     0     0
SMALL
USER_CHARGES

@<TRIPOS>ATOM
      1 C1         -0.0162    1.3409    0.0094 C.2       1 <0>        -0.2194
      2 C2          1.3313    1.7689   -0.0012 C.2       1 <0>        -0.1691
      3 C3          2.0923    0.6599   -0.0144 C.2       1 <0>        -0.0335
      4 O1          1.2819   -0.4111   -0.0124 O.3       1 <0>        -0.1693
      5 C4          0.0021   -0.0041    0.0020 C.2       1 <0>        -0.0188
      6 C5          3.5989    0.6249   -0.0294 C.3       1 <0>         0.1403
      7 O2          4.0883    0.6069    1.3130 O.3       1 <0>        -0.2941
      8 C6          5.4362    0.5748    1.4776 C.ar      1 <0>         0.1715
      9 C7          6.2713    0.5666    0.3724 C.ar      1 <0>        -0.1996
     10 C8          7.6440    0.5338    0.5404 C.ar      1 <0>         0.0202
     11 C9          8.1927    0.5091    1.8120 C.ar      1 <0>        -0.1365
     12 C10         7.3733    0.5169    2.9230 C.ar      1 <0>         0.0196
     13 C11         5.9865    0.5557    2.7647 C.ar      1 <0>        -0.0792
     14 C12         5.1044    0.5708    3.9494 C.2       1 <0>        -0.0794
     15 C13         5.2795   -0.3181    4.9180 C.2       1 <0>        -0.1312
     16 C14         4.3795   -0.3026    6.1266 C.3       1 <0>         0.1455
     17 C15         3.6502   -1.6441    6.2381 C.3       1 <0>        -0.1519
     18 C16         2.7679   -1.6399    7.4905 C.3       1 <0>         0.1096
     19 H1          2.0335   -0.8379    7.4172 H         1 <0>         0.0684
     20 C17         3.6550   -1.4134    8.7214 C.3       1 <0>        -0.2047
     21 C18         4.5019   -0.1837    8.4764 C.2       1 <0>         0.4919
     22 O3          4.5819    0.6912    9.3058 O.2       1 <0>        -0.4466
     23 O4          5.1652   -0.0923    7.3051 O.3       1 <0>        -0.3611
     24 O5          2.0955   -2.8955    7.6066 O.3       1 <0>        -0.5545
     25 Cl1         8.0661    0.4852    4.5145 Cl        1 <0>        -0.0283
     26 Cl2         8.6841    0.5232   -0.8494 Cl        1 <0>        -0.0453
     27 H2         -0.8920    1.9726    0.0252 H         1 <0>         0.1537
     28 H3          1.6822    2.7903    0.0004 H         1 <0>         0.1528
     29 H4         -0.8653   -0.6475    0.0072 H         1 <0>         0.2081
     30 H5          3.9364   -0.2706   -0.5512 H         1 <0>         0.0866
     31 H6          3.9777    1.5089   -0.5424 H         1 <0>         0.1008
     32 H7          5.8501    0.5854   -0.6218 H         1 <0>         0.1487
     33 H8          9.2654    0.4832    1.9347 H         1 <0>         0.1506
     34 H9          4.3168    1.3058    4.0268 H         1 <0>         0.1327
     35 H10         6.0671   -1.0530    4.8406 H         1 <0>         0.1291
     36 H11         3.6503    0.5015    6.0271 H         1 <0>         0.0851
     37 H12         3.0283   -1.7944    5.3556 H         1 <0>         0.1011
     38 H13         4.3804   -2.4501    6.3103 H         1 <0>         0.0937
     39 H14         3.0304   -1.2600    9.6013 H         1 <0>         0.1082
     40 H15         4.2996   -2.2790    8.8740 H         1 <0>         0.1189
     41 H16         1.5183   -2.9626    8.3796 H         1 <0>         0.3858
@<TRIPOS>BOND
     1    1    5 2
     2    1    2 1
     3    1   27 1
     4    2    3 2
     5    2   28 1
     6    3    4 1
     7    3    6 1
     8    4    5 1
     9    5   29 1
    10    6    7 1
    11    6   30 1
    12    6   31 1
    13    7    8 1
    14    8   13 ar
    15    8    9 ar
    16    9   10 ar
    17    9   32 1
    18   10   11 ar
    19   10   26 1
    20   11   12 ar
    21   11   33 1
    22   12   13 ar
    23   12   25 1
    24   13   14 1
    25   14   15 2
    26   14   34 1
    27   15   16 1
    28   15   35 1
    29   16   23 1
    30   16   17 1
    31   16   36 1
    32   17   18 1
    33   17   37 1
    34   17   38 1
    35   18   19 1
    36   18   20 1
    37   18   24 1
    38   20   21 1
    39   20   39 1
    40   20   40 1
    41   21   22 2
    42   21   23 1
    43   24   41 1
@<TRIPOS>MOLECULE
CHEMBL250383
   74    76     0     0     0
SMALL
USER_CHARGES

@<TRIPOS>ATOM
      1 C1          0.5345   -2.1897    1.5285 C.3       1 <0>        -0.1522
      2 C2         -0.0907   -0.9128    0.9631 C.3       1 <0>        -0.0275
      3 C3          0.6304   -0.5204   -0.3280 C.3       1 <0>        -0.1409
      4 C4         -1.5491   -1.1546    0.6704 C.2       1 <0>        -0.1593
      5 C5         -2.6335   -0.4076    1.1772 C.2       1 <0>         0.0474
      6 N1         -3.7475   -0.9235    0.6937 N.2       1 <0>        -0.2356
      7 N2         -3.4086   -2.0054   -0.1287 N.pl3     1 <0>        -0.3245
      8 C6         -2.0525   -2.1249   -0.1315 C.2       1 <0>         0.2603
      9 O1         -1.3327   -3.0524   -0.8134 O.3       1 <0>        -0.2831
     10 C7         -1.2301   -4.3523   -0.2287 C.3       1 <0>         0.0226
     11 C8         -0.2844   -5.2152   -1.0666 C.3       1 <0>         0.1215
     12 H1         -0.6267   -5.2298   -2.1014 H         1 <0>         0.1081
     13 C9         -0.2710   -6.6417   -0.5136 C.3       1 <0>        -0.1849
     14 C10         0.5759   -7.5335   -1.4238 C.3       1 <0>         0.1407
     15 H2          0.2035   -7.4672   -2.4461 H         1 <0>         0.0952
     16 C11         0.4883   -8.9831   -0.9422 C.3       1 <0>        -0.2195
     17 C12         1.2210   -9.8784   -1.9080 C.2       1 <0>         0.4909
     18 O2          1.7630   -9.4013   -2.8904 O.co2     1 <0>        -0.6800
     19 O3          1.2717  -11.0799   -1.7069 O.co2     1 <0>        -0.7121
     20 O4          1.9368   -7.0996   -1.3835 O.3       1 <0>        -0.5261
     21 O5          1.0351   -4.6696   -1.0091 O.3       1 <0>        -0.5273
     22 C13        -4.3082   -2.8197   -0.8303 C.ar      1 <0>         0.1265
     23 C14        -5.4833   -3.2415   -0.2227 C.ar      1 <0>        -0.0768
     24 C15        -6.3684   -4.0438   -0.9156 C.ar      1 <0>        -0.1390
     25 C16        -6.0844   -4.4279   -2.2155 C.ar      1 <0>         0.1078
     26 C17        -4.9127   -4.0085   -2.8231 C.ar      1 <0>        -0.1326
     27 C18        -4.0282   -3.2008   -2.1358 C.ar      1 <0>        -0.0814
     28 F1         -6.9513   -5.2131   -2.8916 F         1 <0>        -0.1319
     29 C19        -2.5383    0.7491    2.0902 C.2       1 <0>         0.6003
     30 O6         -1.4528    1.1122    2.5003 O.2       1 <0>        -0.5159
     31 N3         -3.6547    1.4024    2.4690 N.am      1 <0>        -0.6000
     32 C20        -4.9696    0.9060    2.0557 C.3       1 <0>         0.0635
     33 C21        -3.5532    2.6088    3.2938 C.3       1 <0>         0.1194
     34 C22        -3.4488    3.8381    2.3889 C.3       1 <0>        -0.1028
     35 C23        -4.7467    3.9986    1.5949 C.3       1 <0>        -0.1164
     36 C24        -4.6423    5.2279    0.6900 C.3       1 <0>        -0.1199
     37 C25        -4.4113    6.4740    1.5471 C.3       1 <0>        -0.1194
     38 C26        -3.1134    6.3135    2.3411 C.3       1 <0>        -0.1190
     39 C27        -3.2178    5.0842    3.2461 C.3       1 <0>        -0.1110
     40 H3          1.6014   -2.0326    1.6867 H         1 <0>         0.0625
     41 H4          0.0591   -2.4376    2.4776 H         1 <0>         0.0483
     42 H5          0.3883   -3.0085    0.8241 H         1 <0>         0.0613
     43 H6          0.0050   -0.1079    1.6919 H         1 <0>         0.1053
     44 H7          0.4620   -1.2860   -1.0853 H         1 <0>         0.0642
     45 H8          0.2437    0.4344   -0.6843 H         1 <0>         0.0475
     46 H9          1.6992   -0.4299   -0.1341 H         1 <0>         0.0576
     47 H10        -0.8397   -4.2648    0.7852 H         1 <0>         0.0693
     48 H11        -2.2158   -4.8165   -0.1998 H         1 <0>         0.0620
     49 H12         0.1546   -6.6384    0.4898 H         1 <0>         0.0674
     50 H13        -1.2903   -7.0259   -0.4748 H         1 <0>         0.0768
     51 H14         0.9417   -9.0659    0.0455 H         1 <0>         0.0574
     52 H15        -0.5576   -9.2855   -0.8884 H         1 <0>         0.0614
     53 H16         2.3340   -7.1321   -0.5024 H         1 <0>         0.3512
     54 H17         1.4041   -4.6261   -0.1163 H         1 <0>         0.3651
     55 H18        -5.7048   -2.9428    0.7912 H         1 <0>         0.1427
     56 H19        -7.2825   -4.3721   -0.4433 H         1 <0>         0.1466
     57 H20        -4.6928   -4.3094   -3.8368 H         1 <0>         0.1498
     58 H21        -3.1169   -2.8700   -2.6116 H         1 <0>         0.1469
     59 H22        -5.2978    0.1286    2.7457 H         1 <0>         0.0565
     60 H23        -5.6871    1.7265    2.0650 H         1 <0>         0.0743
     61 H24        -4.9024    0.4936    1.0490 H         1 <0>         0.1013
     62 H25        -4.4395    2.6947    3.9225 H         1 <0>         0.0792
     63 H26        -2.6659    2.5448    3.9236 H         1 <0>         0.0885
     64 H27        -2.6142    3.7117    1.6992 H         1 <0>         0.0755
     65 H28        -4.9113    3.1108    0.9843 H         1 <0>         0.0648
     66 H29        -5.5813    4.1250    2.2846 H         1 <0>         0.0610
     67 H30        -3.8078    5.1015    0.0003 H         1 <0>         0.0605
     68 H31        -5.5670    5.3422    0.1243 H         1 <0>         0.0600
     69 H32        -4.3369    7.3498    0.9024 H         1 <0>         0.0592
     70 H33        -5.2459    6.6004    2.2368 H         1 <0>         0.0603
     71 H34        -2.2788    6.1871    1.6515 H         1 <0>         0.0618
     72 H35        -2.9489    7.2012    2.9518 H         1 <0>         0.0615
     73 H36        -4.0524    5.2106    3.9357 H         1 <0>         0.0625
     74 H37        -2.2931    4.9698    3.8117 H         1 <0>         0.0651
@<TRIPOS>BOND
     1    1    2 1
     2    1   40 1
     3    1   41 1
     4    1   42 1
     5    2    3 1
     6    2    4 1
     7    2   43 1
     8    3   44 1
     9    3   45 1
    10    3   46 1
    11    4    8 2
    12    4    5 1
    13    5    6 2
    14    5   29 1
    15    6    7 1
    16    7    8 1
    17    7   22 1
    18    8    9 1
    19    9   10 1
    20   10   11 1
    21   10   47 1
    22   10   48 1
    23   11   12 1
    24   11   13 1
    25   11   21 1
    26   13   14 1
    27   13   49 1
    28   13   50 1
    29   14   15 1
    30   14   16 1
    31   14   20 1
    32   16   17 1
    33   16   51 1
    34   16   52 1
    35   17   18 2
    36   17   19 1
    37   20   53 1
    38   21   54 1
    39   22   27 ar
    40   22   23 ar
    41   23   24 ar
    42   23   55 1
    43   24   25 ar
    44   24   56 1
    45   25   26 ar
    46   25   28 1
    47   26   27 ar
    48   26   57 1
    49   27   58 1
    50   29   30 2
    51   29   31 am
    52   31   32 1
    53   31   33 1
    54   32   59 1
    55   32   60 1
    56   32   61 1
    57   33   34 1
    58   33   62 1
    59   33   63 1
    60   34   39 1
    61   34   35 1
    62   34   64 1
    63   35   36 1
    64   35   65 1
    65   35   66 1
    66   36   37 1
    67   36   67 1
    68   36   68 1
    69   37   38 1
    70   37   69 1
    71   37   70 1
    72   38   39 1
    73   38   71 1
    74   38   72 1
    75   39   73 1
    76   39   74 1
@<TRIPOS>MOLECULE
CHEMBL250382
   64    65     0     0     0
SMALL
USER_CHARGES

@<TRIPOS>ATOM
      1 C1          0.7289    0.8240    0.2576 C.3       1 <0>        -0.1531
      2 C2          0.5434   -0.6946    0.2744 C.3       1 <0>        -0.1215
      3 C3         -0.9486   -1.0268    0.2073 C.3       1 <0>        -0.1332
      4 C4         -1.1342   -2.5454    0.2241 C.3       1 <0>         0.1177
      5 N1         -2.5628   -2.8635    0.1599 N.am      1 <0>        -0.7179
      6 C5         -2.9677   -4.1490    0.1620 C.2       1 <0>         0.6036
      7 O1         -2.1474   -5.0446    0.2172 O.2       1 <0>        -0.5153
      8 C6         -4.4077   -4.4697    0.0973 C.2       1 <0>         0.0432
      9 C7         -4.9651   -5.7618   -0.0057 C.2       1 <0>        -0.1594
     10 C8         -6.3141   -5.6304   -0.0375 C.2       1 <0>         0.2588
     11 N2         -6.6051   -4.3030    0.0423 N.pl3     1 <0>        -0.3191
     12 N3         -5.3979   -3.5983    0.1314 N.2       1 <0>        -0.2380
     13 C9         -7.8888   -3.7400    0.0406 C.ar      1 <0>         0.1266
     14 C10        -8.1820   -2.6752    0.8821 C.ar      1 <0>        -0.0772
     15 C11        -9.4472   -2.1217    0.8786 C.ar      1 <0>        -0.1387
     16 C12       -10.4231   -2.6279    0.0364 C.ar      1 <0>         0.1075
     17 C13       -10.1326   -3.6898   -0.8037 C.ar      1 <0>        -0.1321
     18 C14        -8.8671   -4.2427   -0.8069 C.ar      1 <0>        -0.0815
     19 F1        -11.6604   -2.0853    0.0347 F         1 <0>        -0.1318
     20 O2         -7.2143   -6.6423   -0.1325 O.3       1 <0>        -0.2826
     21 C15        -7.8094   -7.0976    1.0842 C.3       1 <0>         0.0221
     22 C16        -8.7016   -8.3063    0.7946 C.3       1 <0>         0.1215
     23 H1         -9.4291   -8.0451    0.0261 H         1 <0>         0.1082
     24 C17        -9.4353   -8.7167    2.0729 C.3       1 <0>        -0.1850
     25 C18       -10.4198   -9.8443    1.7563 C.3       1 <0>         0.1407
     26 H2        -11.0872   -9.5293    0.9542 H         1 <0>         0.0953
     27 C19       -11.2414  -10.1696    3.0053 C.3       1 <0>        -0.2195
     28 C20       -12.2933  -11.1928    2.6622 C.2       1 <0>         0.4909
     29 O3        -12.3779  -11.6220    1.5242 O.co2     1 <0>        -0.6801
     30 O4        -13.0596  -11.5914    3.5227 O.co2     1 <0>        -0.7121
     31 O5         -9.6969  -11.0065    1.3457 O.3       1 <0>        -0.5262
     32 O6         -7.8959   -9.3945    0.3376 O.3       1 <0>        -0.5275
     33 C21        -4.1976   -7.0571   -0.0698 C.3       1 <0>        -0.0280
     34 C22        -4.6712   -7.9865    1.0495 C.3       1 <0>        -0.1519
     35 C23        -4.4386   -7.7262   -1.4245 C.3       1 <0>        -0.1415
     36 H3          1.7919    1.0607    0.3054 H         1 <0>         0.0558
     37 H4          0.3069    1.2315   -0.6610 H         1 <0>         0.0545
     38 H5          0.2203    1.2617    1.1166 H         1 <0>         0.0545
     39 H6          1.0520   -1.1323   -0.5846 H         1 <0>         0.0659
     40 H7          0.9654   -1.1021    1.1930 H         1 <0>         0.0658
     41 H8         -1.4573   -0.5891    1.0663 H         1 <0>         0.0703
     42 H9         -1.3707   -0.6193   -0.7113 H         1 <0>         0.0703
     43 H10        -0.6256   -2.9831   -0.6349 H         1 <0>         0.0719
     44 H11        -0.7122   -2.9529    1.1427 H         1 <0>         0.0717
     45 H12        -3.2173   -2.1489    0.1159 H         1 <0>         0.4075
     46 H13        -7.4213   -2.2805    1.5392 H         1 <0>         0.1430
     47 H14        -9.6757   -1.2937    1.5333 H         1 <0>         0.1467
     48 H15       -10.8951   -4.0835   -1.4595 H         1 <0>         0.1503
     49 H16        -8.6397   -5.0682   -1.4651 H         1 <0>         0.1479
     50 H17        -7.0267   -7.3838    1.7867 H         1 <0>         0.0698
     51 H18        -8.4105   -6.2975    1.5163 H         1 <0>         0.0619
     52 H19        -8.7123   -9.0624    2.8118 H         1 <0>         0.0675
     53 H20        -9.9796   -7.8600    2.4704 H         1 <0>         0.0769
     54 H21       -10.5848  -10.5687    3.7784 H         1 <0>         0.0574
     55 H22       -11.7226   -9.2622    3.3702 H         1 <0>         0.0614
     56 H23        -9.0821  -11.3431    2.0119 H         1 <0>         0.3512
     57 H24        -7.2249   -9.6807    0.9723 H         1 <0>         0.3651
     58 H25        -3.1333   -6.8552    0.0515 H         1 <0>         0.1057
     59 H26        -5.7089   -8.2692    0.8723 H         1 <0>         0.0628
     60 H27        -4.0488   -8.8811    1.0666 H         1 <0>         0.0623
     61 H28        -4.5934   -7.4713    2.0068 H         1 <0>         0.0482
     62 H29        -4.0225   -7.1034   -2.2165 H         1 <0>         0.0480
     63 H30        -3.9550   -8.7030   -1.4385 H         1 <0>         0.0582
     64 H31        -5.5099   -7.8488   -1.5837 H         1 <0>         0.0644
@<TRIPOS>BOND
     1    1    2 1
     2    1   36 1
     3    1   37 1
     4    1   38 1
     5    2    3 1
     6    2   39 1
     7    2   40 1
     8    3    4 1
     9    3   41 1
    10    3   42 1
    11    4    5 1
    12    4   43 1
    13    4   44 1
    14    5    6 am
    15    5   45 1
    16    6    7 2
    17    6    8 1
    18    8   12 2
    19    8    9 1
    20    9   10 2
    21    9   33 1
    22   10   11 1
    23   10   20 1
    24   11   12 1
    25   11   13 1
    26   13   18 ar
    27   13   14 ar
    28   14   15 ar
    29   14   46 1
    30   15   16 ar
    31   15   47 1
    32   16   17 ar
    33   16   19 1
    34   17   18 ar
    35   17   48 1
    36   18   49 1
    37   20   21 1
    38   21   22 1
    39   21   50 1
    40   21   51 1
    41   22   23 1
    42   22   24 1
    43   22   32 1
    44   24   25 1
    45   24   52 1
    46   24   53 1
    47   25   26 1
    48   25   27 1
    49   25   31 1
    50   27   28 1
    51   27   54 1
    52   27   55 1
    53   28   29 2
    54   28   30 1
    55   31   56 1
    56   32   57 1
    57   33   34 1
    58   33   35 1
    59   33   58 1
    60   34   59 1
    61   34   60 1
    62   34   61 1
    63   35   62 1
    64   35   63 1
    65   35   64 1
@<TRIPOS>MOLECULE
CHEMBL107753
   49    51     0     0     0
SMALL
USER_CHARGES

@<TRIPOS>ATOM
      1 C1         -0.0184    1.5028    0.0103 C.3       1 <0>        -0.0853
      2 C2          0.0021   -0.0041    0.0020 C.2       1 <0>         0.0147
      3 C3          0.0082   -0.7886   -1.0948 C.2       1 <0>        -0.1982
      4 C4          0.0282   -2.1272   -0.6557 C.2       1 <0>        -0.1906
      5 C5          0.0335   -2.1097    0.6927 C.2       1 <0>         0.0211
      6 N1          0.0235   -0.8092    1.1021 N.pl3     1 <0>        -0.4399
      7 C6          0.0305   -0.3525    2.4941 C.3       1 <0>         0.1032
      8 C7         -1.4094   -0.2137    2.9926 C.3       1 <0>        -0.1303
      9 C8         -1.4021    0.2632    4.4463 C.3       1 <0>         0.1131
     10 H1         -0.7974   -0.4147    5.0487 H         1 <0>         0.0889
     11 C9         -2.8352    0.2848    4.9844 C.3       1 <0>        -0.1521
     12 C10        -2.8285    0.8022    6.4264 C.3       1 <0>         0.1045
     13 H2         -3.8488    0.8311    6.8087 H         1 <0>         0.0818
     14 C11        -2.2330    2.2158    6.4434 C.3       1 <0>        -0.2044
     15 C12        -0.9031    2.1795    5.7228 C.2       1 <0>         0.4967
     16 O1          0.0847    2.6702    6.2162 O.2       1 <0>        -0.4500
     17 O2         -0.8510    1.5832    4.5136 O.3       1 <0>        -0.3704
     18 O3         -2.0361   -0.0634    7.2418 O.3       1 <0>        -0.5641
     19 C13         0.0532   -3.3189    1.5918 C.3       1 <0>        -0.0140
     20 C14         1.4973   -3.7837    1.7899 C.3       1 <0>        -0.1095
     21 C15         1.5173   -5.0114    2.7027 C.3       1 <0>        -0.1200
     22 C16         0.7026   -6.1368    2.0619 C.3       1 <0>        -0.1213
     23 C17        -0.7416   -5.6719    1.8639 C.3       1 <0>        -0.1200
     24 C18        -0.7615   -4.4443    0.9510 C.3       1 <0>        -0.1056
     25 H3          1.0042    1.8801    0.0026 H         1 <0>         0.0684
     26 H4         -0.5455    1.8639   -0.8728 H         1 <0>         0.0780
     27 H5         -0.5286    1.8543    0.9071 H         1 <0>         0.0622
     28 H6         -0.0009   -0.4525   -2.1211 H         1 <0>         0.1322
     29 H7          0.0372   -3.0058   -1.2836 H         1 <0>         0.1317
     30 H8          0.5605   -1.0776    3.1117 H         1 <0>         0.0883
     31 H9          0.5315    0.6135    2.5570 H         1 <0>         0.0970
     32 H10        -1.9394    0.5114    2.3749 H         1 <0>         0.0853
     33 H11        -1.9104   -1.1797    2.9296 H         1 <0>         0.0942
     34 H12        -3.4463    0.9416    4.3652 H         1 <0>         0.0975
     35 H13        -3.2474   -0.7240    4.9619 H         1 <0>         0.0996
     36 H14        -2.9076    2.9048    5.9351 H         1 <0>         0.1195
     37 H15        -2.0841    2.5394    7.4735 H         1 <0>         0.1094
     38 H16        -1.9880    0.2052    8.1695 H         1 <0>         0.3877
     39 H17        -0.3810   -3.0605    2.5577 H         1 <0>         0.0700
     40 H18         1.9315   -4.0420    0.8240 H         1 <0>         0.0679
     41 H19         2.0777   -2.9820    2.2464 H         1 <0>         0.0577
     42 H20         2.5461   -5.3426    2.8438 H         1 <0>         0.0632
     43 H21         1.0831   -4.7531    3.6686 H         1 <0>         0.0604
     44 H22         1.1368   -6.3951    1.0961 H         1 <0>         0.0630
     45 H23         0.7168   -7.0114    2.7123 H         1 <0>         0.0613
     46 H24        -1.3220   -6.4737    1.4073 H         1 <0>         0.0642
     47 H25        -1.1758   -5.4136    2.8297 H         1 <0>         0.0605
     48 H26        -1.7904   -4.1131    0.8099 H         1 <0>         0.0640
     49 H27        -0.3273   -4.7026   -0.0148 H         1 <0>         0.0684
@<TRIPOS>BOND
     1    1    2 1
     2    1   25 1
     3    1   26 1
     4    1   27 1
     5    2    6 1
     6    2    3 2
     7    3    4 1
     8    3   28 1
     9    4    5 2
    10    4   29 1
    11    5    6 1
    12    5   19 1
    13    6    7 1
    14    7    8 1
    15    7   30 1
    16    7   31 1
    17    8    9 1
    18    8   32 1
    19    8   33 1
    20    9   10 1
    21    9   17 1
    22    9   11 1
    23   11   12 1
    24   11   34 1
    25   11   35 1
    26   12   13 1
    27   12   14 1
    28   12   18 1
    29   14   15 1
    30   14   36 1
    31   14   37 1
    32   15   16 2
    33   15   17 1
    34   18   38 1
    35   19   24 1
    36   19   20 1
    37   19   39 1
    38   20   21 1
    39   20   40 1
    40   20   41 1
    41   21   22 1
    42   21   42 1
    43   21   43 1
    44   22   23 1
    45   22   44 1
    46   22   45 1
    47   23   24 1
    48   23   46 1
    49   23   47 1
    50   24   48 1
    51   24   49 1
@<TRIPOS>MOLECULE
CHEMBL143347
   56    58     0     0     0
SMALL
USER_CHARGES

@<TRIPOS>ATOM
      1 C1         -0.0187    1.5258    0.0104 C.3       1 <0>        -0.1410
      2 C2          0.0021   -0.0041    0.0020 C.3       1 <0>        -0.0646
      3 C3          0.7421   -0.5109    1.2415 C.3       1 <0>        -0.1390
      4 C4         -1.4117   -0.5257    0.0127 C.ar      1 <0>         0.1894
      5 C5         -1.8496   -1.3364   -1.0462 C.ar      1 <0>        -0.0760
      6 C6         -3.1644   -1.8232   -1.0390 C.ar      1 <0>         0.0189
      7 C7         -3.9936   -1.4658    0.0529 C.ar      1 <0>        -0.0821
      8 C8         -5.3198   -1.9121    0.1343 C.ar      1 <0>        -0.0825
      9 C9         -6.0893   -1.5489    1.2000 C.ar      1 <0>        -0.0333
     10 C10        -5.5724   -0.7383    2.2093 C.ar      1 <0>        -0.0980
     11 C11        -4.2886   -0.2884    2.1595 C.ar      1 <0>        -0.0755
     12 C12        -3.4653   -0.6427    1.0767 C.ar      1 <0>         0.1335
     13 N1         -2.1983   -0.2156    1.0117 N.ar      1 <0>        -0.4653
     14 Cl1        -7.7318   -2.1020    1.3004 Cl        1 <0>        -0.0655
     15 C13        -3.6684   -2.6798   -2.1336 C.ar      1 <0>        -0.0642
     16 C14        -3.7803   -2.1690   -3.4281 C.ar      1 <0>        -0.0623
     17 C15        -4.2505   -2.9724   -4.4453 C.ar      1 <0>        -0.1486
     18 C16        -4.6123   -4.2848   -4.1844 C.ar      1 <0>         0.1102
     19 C17        -4.5037   -4.7969   -2.9009 C.ar      1 <0>        -0.1512
     20 C18        -4.0288   -4.0041   -1.8775 C.ar      1 <0>        -0.0717
     21 F1         -5.0728   -5.0676   -5.1846 F         1 <0>        -0.1358
     22 C19        -0.9363   -1.6722   -2.1552 C.2       1 <0>        -0.1250
     23 C20        -0.2581   -0.7112   -2.7707 C.2       1 <0>        -0.1578
     24 C21         0.6748   -1.0543   -3.9034 C.3       1 <0>         0.1398
     25 C22         0.2965   -0.2377   -5.1408 C.3       1 <0>        -0.1812
     26 C23         1.3176   -0.4921   -6.2514 C.3       1 <0>         0.1373
     27 H1          2.3197   -0.2786   -5.8795 H         1 <0>         0.0942
     28 C24         1.0117    0.4169   -7.4435 C.3       1 <0>        -0.2191
     29 C25         2.0869    0.2558   -8.4871 C.2       1 <0>         0.4905
     30 O1          3.0121   -0.5146   -8.2951 O.co2     1 <0>        -0.6808
     31 O2          2.0315    0.8959   -9.5232 O.co2     1 <0>        -0.7128
     32 O3          1.2434   -1.8585   -6.6630 O.3       1 <0>        -0.5275
     33 O4          0.5696   -2.4478   -4.2018 O.3       1 <0>        -0.5361
     34 H2          1.0039    1.9031    0.0027 H         1 <0>         0.0643
     35 H3         -0.5459    1.8868   -0.8726 H         1 <0>         0.0525
     36 H4         -0.5289    1.8773    0.9072 H         1 <0>         0.0652
     37 H5          0.5123   -0.3556   -0.8948 H         1 <0>         0.1037
     38 H6          0.7568   -1.6008    1.2356 H         1 <0>         0.0526
     39 H7          1.7647   -0.1336    1.2338 H         1 <0>         0.0627
     40 H8          0.2319   -0.1594    2.1383 H         1 <0>         0.0634
     41 H9         -5.7300   -2.5400   -0.6428 H         1 <0>         0.1404
     42 H10        -6.2004   -0.4625    3.0436 H         1 <0>         0.1402
     43 H11        -3.9038    0.3392    2.9497 H         1 <0>         0.1455
     44 H12        -3.4993   -1.1464   -3.6323 H         1 <0>         0.1349
     45 H13        -4.3374   -2.5783   -5.4471 H         1 <0>         0.1422
     46 H14        -4.7876   -5.8199   -2.7029 H         1 <0>         0.1398
     47 H15        -3.9404   -4.4054   -0.8787 H         1 <0>         0.1340
     48 H16        -0.8194   -2.6998   -2.4662 H         1 <0>         0.1351
     49 H17        -0.3749    0.3164   -2.4597 H         1 <0>         0.1211
     50 H18         1.6994   -0.8211   -3.6136 H         1 <0>         0.1125
     51 H19        -0.6946   -0.5352   -5.4833 H         1 <0>         0.0638
     52 H20         0.2907    0.8226   -4.8885 H         1 <0>         0.0764
     53 H21         0.0468    0.1435   -7.8707 H         1 <0>         0.0561
     54 H22         0.9808    1.4544   -7.1107 H         1 <0>         0.0612
     55 H23         0.3777   -2.1195   -7.0060 H         1 <0>         0.3499
     56 H24        -0.3171   -2.7272   -4.4679 H         1 <0>         0.3657
@<TRIPOS>BOND
     1    1    2 1
     2    1   34 1
     3    1   35 1
     4    1   36 1
     5    2    3 1
     6    2    4 1
     7    2   37 1
     8    3   38 1
     9    3   39 1
    10    3   40 1
    11    4   13 ar
    12    4    5 ar
    13    5    6 ar
    14    5   22 1
    15    6    7 ar
    16    6   15 1
    17    7   12 ar
    18    7    8 ar
    19    8    9 ar
    20    8   41 1
    21    9   10 ar
    22    9   14 1
    23   10   11 ar
    24   10   42 1
    25   11   12 ar
    26   11   43 1
    27   12   13 ar
    28   15   20 ar
    29   15   16 ar
    30   16   17 ar
    31   16   44 1
    32   17   18 ar
    33   17   45 1
    34   18   19 ar
    35   18   21 1
    36   19   20 ar
    37   19   46 1
    38   20   47 1
    39   22   23 2
    40   22   48 1
    41   23   24 1
    42   23   49 1
    43   24   25 1
    44   24   33 1
    45   24   50 1
    46   25   26 1
    47   25   51 1
    48   25   52 1
    49   26   27 1
    50   26   28 1
    51   26   32 1
    52   28   29 1
    53   28   53 1
    54   28   54 1
    55   29   30 2
    56   29   31 1
    57   32   55 1
    58   33   56 1
@<TRIPOS>MOLECULE
CHEMBL143347__1
   56    58     0     0     0
SMALL
USER_CHARGES

@<TRIPOS>ATOM
      1 C1         -0.0187    1.5258    0.0104 C.3       1 <0>        -0.1405
      2 C2          0.0021   -0.0041    0.0020 C.3       1 <0>        -0.0655
      3 C3          0.7421   -0.5109    1.2415 C.3       1 <0>        -0.1383
      4 C4         -1.4117   -0.5257    0.0127 C.ar      1 <0>         0.1907
      5 C5         -1.8496   -1.3364   -1.0462 C.ar      1 <0>        -0.0809
      6 C6         -3.1644   -1.8232   -1.0390 C.ar      1 <0>         0.0226
      7 C7         -3.9936   -1.4658    0.0529 C.ar      1 <0>        -0.0830
      8 C8         -5.3198   -1.9121    0.1343 C.ar      1 <0>        -0.0817
      9 C9         -6.0893   -1.5489    1.2000 C.ar      1 <0>        -0.0337
     10 C10        -5.5724   -0.7383    2.2093 C.ar      1 <0>        -0.0971
     11 C11        -4.2886   -0.2884    2.1595 C.ar      1 <0>        -0.0761
     12 C12        -3.4653   -0.6427    1.0767 C.ar      1 <0>         0.1346
     13 N1         -2.1983   -0.2156    1.0117 N.ar      1 <0>        -0.4656
     14 Cl1        -7.7318   -2.1020    1.3004 Cl        1 <0>        -0.0652
     15 C13        -3.6684   -2.6798   -2.1336 C.ar      1 <0>        -0.0675
     16 C14        -3.7803   -2.1690   -3.4281 C.ar      1 <0>        -0.0604
     17 C15        -4.2505   -2.9724   -4.4453 C.ar      1 <0>        -0.1479
     18 C16        -4.6123   -4.2848   -4.1844 C.ar      1 <0>         0.1109
     19 C17        -4.5037   -4.7969   -2.9009 C.ar      1 <0>        -0.1519
     20 C18        -4.0288   -4.0041   -1.8775 C.ar      1 <0>        -0.0720
     21 F1         -5.0728   -5.0676   -5.1846 F         1 <0>        -0.1353
     22 C19        -0.9363   -1.6722   -2.1552 C.2       1 <0>        -0.1121
     23 C20        -0.2581   -0.7112   -2.7707 C.2       1 <0>        -0.1558
     24 C21         0.6748   -1.0543   -3.9034 C.3       1 <0>         0.1397
     25 C22         0.2211   -0.3328   -5.1741 C.3       1 <0>        -0.1821
     26 C23         1.0916   -0.7771   -6.3512 C.3       1 <0>         0.1353
     27 H1          2.1416   -0.6123   -6.1092 H         1 <0>         0.1032
     28 C24         0.7213    0.0344   -7.5943 C.3       1 <0>        -0.2182
     29 C25         1.6596   -0.3154   -8.7205 C.2       1 <0>         0.4904
     30 O1          2.5427   -1.1375   -8.5452 O.co2     1 <0>        -0.6804
     31 O2          1.5356    0.2238   -9.8069 O.co2     1 <0>        -0.7126
     32 O3          0.8741   -2.1661   -6.6070 O.3       1 <0>        -0.5407
     33 O4          2.0016   -0.6417   -3.5694 O.3       1 <0>        -0.5465
     34 H2          1.0039    1.9031    0.0027 H         1 <0>         0.0644
     35 H3         -0.5459    1.8868   -0.8726 H         1 <0>         0.0516
     36 H4         -0.5289    1.8773    0.9072 H         1 <0>         0.0650
     37 H5          0.5123   -0.3556   -0.8948 H         1 <0>         0.1060
     38 H6          0.7568   -1.6008    1.2356 H         1 <0>         0.0524
     39 H7          1.7647   -0.1336    1.2338 H         1 <0>         0.0630
     40 H8          0.2319   -0.1594    2.1383 H         1 <0>         0.0629
     41 H9         -5.7300   -2.5400   -0.6428 H         1 <0>         0.1408
     42 H10        -6.2004   -0.4625    3.0436 H         1 <0>         0.1404
     43 H11        -3.9038    0.3392    2.9497 H         1 <0>         0.1457
     44 H12        -3.4993   -1.1464   -3.6323 H         1 <0>         0.1352
     45 H13        -4.3374   -2.5783   -5.4471 H         1 <0>         0.1428
     46 H14        -4.7876   -5.8199   -2.7029 H         1 <0>         0.1400
     47 H15        -3.9404   -4.4054   -0.8787 H         1 <0>         0.1341
     48 H16        -0.8194   -2.6998   -2.4662 H         1 <0>         0.1288
     49 H17        -0.3749    0.3164   -2.4597 H         1 <0>         0.1177
     50 H18         0.6608   -2.1310   -4.0723 H         1 <0>         0.1104
     51 H19        -0.8207   -0.5790   -5.3793 H         1 <0>         0.0691
     52 H20         0.3195    0.7438   -5.0354 H         1 <0>         0.0713
     53 H21        -0.3021   -0.1983   -7.8885 H         1 <0>         0.0561
     54 H22         0.8022    1.0982   -7.3711 H         1 <0>         0.0618
     55 H23        -0.0408   -2.3865   -6.8295 H         1 <0>         0.3534
     56 H24         2.0888    0.3073   -3.4053 H         1 <0>         0.3706
@<TRIPOS>BOND
     1    1    2 1
     2    1   34 1
     3    1   35 1
     4    1   36 1
     5    2    3 1
     6    2    4 1
     7    2   37 1
     8    3   38 1
     9    3   39 1
    10    3   40 1
    11    4   13 ar
    12    4    5 ar
    13    5    6 ar
    14    5   22 1
    15    6    7 ar
    16    6   15 1
    17    7   12 ar
    18    7    8 ar
    19    8    9 ar
    20    8   41 1
    21    9   10 ar
    22    9   14 1
    23   10   11 ar
    24   10   42 1
    25   11   12 ar
    26   11   43 1
    27   12   13 ar
    28   15   20 ar
    29   15   16 ar
    30   16   17 ar
    31   16   44 1
    32   17   18 ar
    33   17   45 1
    34   18   19 ar
    35   18   21 1
    36   19   20 ar
    37   19   46 1
    38   20   47 1
    39   22   23 2
    40   22   48 1
    41   23   24 1
    42   23   49 1
    43   24   25 1
    44   24   33 1
    45   24   50 1
    46   25   26 1
    47   25   51 1
    48   25   52 1
    49   26   27 1
    50   26   28 1
    51   26   32 1
    52   28   29 1
    53   28   53 1
    54   28   54 1
    55   29   30 2
    56   29   31 1
    57   32   55 1
    58   33   56 1
@<TRIPOS>MOLECULE
CHEMBL481660
   79    82     0     0     0
SMALL
USER_CHARGES

@<TRIPOS>ATOM
      1 C1         -0.0187    1.5258    0.0104 C.3       1 <0>        -0.1473
      2 C2          0.0021   -0.0041    0.0020 C.3       1 <0>        -0.0592
      3 C3          0.7309   -0.5033    1.2229 C.2       1 <0>         0.0798
      4 C4          2.0767   -0.7469    1.3086 C.2       1 <0>        -0.2211
      5 C5          2.3124   -1.2109    2.6715 C.2       1 <0>        -0.1287
      6 C6          1.1163   -1.2136    3.2939 C.2       1 <0>         0.0200
      7 N1          0.1699   -0.7803    2.4177 N.pl3     1 <0>        -0.4238
      8 C7         -1.2551   -0.6385    2.7267 C.3       1 <0>         0.1008
      9 C8         -1.9780   -1.9499    2.4129 C.3       1 <0>        -0.1661
     10 C9         -3.4662   -1.8018    2.7356 C.3       1 <0>         0.1167
     11 H1         -3.5832   -1.4777    3.7697 H         1 <0>         0.0996
     12 C10        -4.1667   -3.1480    2.5407 C.3       1 <0>        -0.1856
     13 C11        -5.6271   -3.0315    2.9819 C.3       1 <0>         0.1377
     14 H2         -5.6686   -2.6645    4.0074 H         1 <0>         0.0930
     15 C12        -6.2943   -4.4062    2.9049 C.3       1 <0>        -0.2196
     16 C13        -7.6945   -4.3165    3.4548 C.2       1 <0>         0.4905
     17 O1         -8.1194   -3.2518    3.8699 O.co2     1 <0>        -0.6811
     18 O2         -8.4024   -5.3087    3.4847 O.co2     1 <0>        -0.7125
     19 O3         -6.3135   -2.1201    2.1216 O.3       1 <0>        -0.5279
     20 O4         -4.0484   -0.8311    1.8634 O.3       1 <0>        -0.5411
     21 C14         0.9201   -1.6344    4.7307 C.3       1 <0>        -0.0487
     22 C15         2.1579   -2.4204    5.1790 C.3       1 <0>        -0.1119
     23 C16         3.4221   -1.6291    4.8320 C.3       1 <0>        -0.1176
     24 C17         3.6137   -1.6173    3.3098 C.3       1 <0>        -0.0466
     25 C18         3.0792   -0.5760    0.2434 C.2       1 <0>         0.6059
     26 O5          3.6536    0.4882    0.1141 O.2       1 <0>        -0.5418
     27 N2          3.3600   -1.5989   -0.5880 N.am      1 <0>        -0.7128
     28 C19         4.3573   -1.4289   -1.6477 C.3       1 <0>         0.1893
     29 H3          5.1552   -0.7758   -1.2942 H         1 <0>         0.1076
     30 C20         3.6939   -0.8044   -2.8768 C.3       1 <0>         0.0689
     31 O6          2.7275   -1.7123   -3.4094 O.3       1 <0>        -0.5642
     32 C21         4.9333   -2.7720   -2.0156 C.ar      1 <0>        -0.0852
     33 C22         4.1062   -3.8777   -2.0961 C.ar      1 <0>        -0.0830
     34 C23         4.6284   -5.1102   -2.4327 C.ar      1 <0>        -0.1097
     35 C24         5.9914   -5.2393   -2.6915 C.ar      1 <0>        -0.0445
     36 C25         6.8199   -4.1221   -2.6089 C.ar      1 <0>        -0.1106
     37 C26         6.2861   -2.8933   -2.2770 C.ar      1 <0>        -0.1067
     38 C27         6.5587   -6.5619   -3.0533 C.ar      1 <0>        -0.0441
     39 C28         5.7292   -7.6781   -3.1411 C.ar      1 <0>        -0.1106
     40 C29         6.2621   -8.9058   -3.4785 C.ar      1 <0>        -0.1172
     41 C30         7.6168   -9.0294   -3.7288 C.ar      1 <0>        -0.1205
     42 C31         8.4449   -7.9247   -3.6427 C.ar      1 <0>        -0.1183
     43 C32         7.9217   -6.6910   -3.3121 C.ar      1 <0>        -0.1121
     44 H4          1.0039    1.9031    0.0027 H         1 <0>         0.0625
     45 H5         -0.5459    1.8868   -0.8726 H         1 <0>         0.0611
     46 H6         -0.5289    1.8773    0.9072 H         1 <0>         0.0541
     47 H7         -1.0205   -0.3814    0.0098 H         1 <0>         0.0743
     48 H8          0.5123   -0.3556   -0.8948 H         1 <0>         0.0821
     49 H9         -1.3758   -0.4010    3.7837 H         1 <0>         0.0908
     50 H10        -1.6796    0.1638    2.1233 H         1 <0>         0.0988
     51 H11        -1.8573   -2.1874    1.3560 H         1 <0>         0.0711
     52 H12        -1.5534   -2.7522    3.0163 H         1 <0>         0.0775
     53 H13        -4.1265   -3.4295    1.4884 H         1 <0>         0.0633
     54 H14        -3.6657   -3.9084    3.1396 H         1 <0>         0.0744
     55 H15        -6.3322   -4.7340    1.8661 H         1 <0>         0.0564
     56 H16        -5.7189   -5.1227    3.4912 H         1 <0>         0.0610
     57 H17        -6.3167   -2.3839    1.1913 H         1 <0>         0.3502
     58 H18        -3.9808   -1.0547    0.9251 H         1 <0>         0.3661
     59 H19         0.7999   -0.7512    5.3581 H         1 <0>         0.0751
     60 H20         0.0360   -2.2670    4.8098 H         1 <0>         0.0735
     61 H21         2.1150   -2.5817    6.2562 H         1 <0>         0.0697
     62 H22         2.1809   -3.3833    4.6688 H         1 <0>         0.0666
     63 H23         3.3212   -0.6058    5.1936 H         1 <0>         0.0642
     64 H24         4.2856   -2.0982    5.3036 H         1 <0>         0.0654
     65 H25         3.8953   -2.6131    2.9676 H         1 <0>         0.0673
     66 H26         4.3925   -0.9029    3.0430 H         1 <0>         0.0680
     67 H27         2.9019   -2.4476   -0.4848 H         1 <0>         0.4036
     68 H28         3.2008    0.1247   -2.5910 H         1 <0>         0.0562
     69 H29         4.4517   -0.5960   -3.6322 H         1 <0>         0.0541
     70 H30         2.2664   -1.3813   -4.1924 H         1 <0>         0.3786
     71 H31         3.0499   -3.7766   -1.8950 H         1 <0>         0.1270
     72 H32         3.9818   -5.9730   -2.4949 H         1 <0>         0.1255
     73 H33         7.8772   -4.2166   -2.8081 H         1 <0>         0.1255
     74 H34         6.9266   -2.0257   -2.2173 H         1 <0>         0.1252
     75 H35         4.6715   -7.5829   -2.9451 H         1 <0>         0.1259
     76 H36         5.6201   -9.7716   -3.5468 H         1 <0>         0.1244
     77 H37         8.0297   -9.9920   -3.9922 H         1 <0>         0.1221
     78 H38         9.5020   -8.0269   -3.8388 H         1 <0>         0.1235
     79 H39         8.5683   -5.8283   -3.2495 H         1 <0>         0.1248
@<TRIPOS>BOND
     1    1    2 1
     2    1   44 1
     3    1   45 1
     4    1   46 1
     5    2    3 1
     6    2   47 1
     7    2   48 1
     8    3    7 1
     9    3    4 2
    10    4    5 1
    11    4   25 1
    12    5   24 1
    13    5    6 2
    14    6    7 1
    15    6   21 1
    16    7    8 1
    17    8    9 1
    18    8   49 1
    19    8   50 1
    20    9   10 1
    21    9   51 1
    22    9   52 1
    23   10   11 1
    24   10   12 1
    25   10   20 1
    26   12   13 1
    27   12   53 1
    28   12   54 1
    29   13   14 1
    30   13   15 1
    31   13   19 1
    32   15   16 1
    33   15   55 1
    34   15   56 1
    35   16   17 2
    36   16   18 1
    37   19   57 1
    38   20   58 1
    39   21   22 1
    40   21   59 1
    41   21   60 1
    42   22   23 1
    43   22   61 1
    44   22   62 1
    45   23   24 1
    46   23   63 1
    47   23   64 1
    48   24   65 1
    49   24   66 1
    50   25   26 2
    51   25   27 am
    52   27   28 1
    53   27   67 1
    54   28   29 1
    55   28   30 1
    56   28   32 1
    57   30   31 1
    58   30   68 1
    59   30   69 1
    60   31   70 1
    61   32   37 ar
    62   32   33 ar
    63   33   34 ar
    64   33   71 1
    65   34   35 ar
    66   34   72 1
    67   35   36 ar
    68   35   38 1
    69   36   37 ar
    70   36   73 1
    71   37   74 1
    72   38   43 ar
    73   38   39 ar
    74   39   40 ar
    75   39   75 1
    76   40   41 ar
    77   40   76 1
    78   41   42 ar
    79   41   77 1
    80   42   43 ar
    81   42   78 1
    82   43   79 1
@<TRIPOS>MOLECULE
CHEMBL155610
   57    60     0     0     0
SMALL
USER_CHARGES

@<TRIPOS>ATOM
      1 C1         -0.0187    1.5258    0.0104 C.3       1 <0>        -0.1425
      2 C2          0.0021   -0.0041    0.0020 C.3       1 <0>        -0.0480
      3 C3         -1.4333   -0.5336    0.0129 C.3       1 <0>        -0.1403
      4 C4          0.7074   -0.4901   -1.2379 C.ar      1 <0>         0.2092
      5 C5          1.8541   -1.2847   -1.1356 C.ar      1 <0>        -0.1566
      6 C6          2.4759   -1.7135   -2.3272 C.ar      1 <0>         0.2358
      7 N1          1.9501   -1.3473   -3.4917 N.ar      1 <0>        -0.5063
      8 C7          0.8616   -0.5930   -3.5363 C.ar      1 <0>         0.3705
      9 N2          0.2484   -0.1761   -2.4352 N.ar      1 <0>        -0.5052
     10 C8          0.3086   -0.2076   -4.8560 C.ar      1 <0>        -0.0611
     11 C9         -0.8327    0.5903   -4.9301 C.ar      1 <0>        -0.0394
     12 C10        -1.3438    0.9464   -6.1607 C.ar      1 <0>        -0.1641
     13 C11        -0.7253    0.5122   -7.3224 C.ar      1 <0>         0.1216
     14 C12         0.4089   -0.2813   -7.2537 C.ar      1 <0>        -0.1639
     15 C13         0.9311   -0.6370   -6.0277 C.ar      1 <0>        -0.0406
     16 F1         -1.2297    0.8632   -8.5255 F         1 <0>        -0.1347
     17 C14         3.6928   -2.5562   -2.2814 C.ar      1 <0>        -0.0738
     18 C15         4.6332   -2.3727   -1.2675 C.ar      1 <0>        -0.0545
     19 C16         5.7647   -3.1602   -1.2288 C.ar      1 <0>        -0.1588
     20 C17         5.9685   -4.1324   -2.1954 C.ar      1 <0>         0.1214
     21 C18         5.0373   -4.3182   -3.2049 C.ar      1 <0>        -0.1605
     22 C19         3.8996   -3.5399   -3.2486 C.ar      1 <0>        -0.0441
     23 F2          7.0787   -4.9012   -2.1535 F         1 <0>        -0.1340
     24 C20         2.3986   -1.6636    0.1823 C.2       1 <0>        -0.0918
     25 C21         2.6847   -2.9336    0.4421 C.2       1 <0>        -0.1393
     26 C22         3.2409   -3.3206    1.7882 C.3       1 <0>         0.1439
     27 C23         2.3584   -4.4043    2.4134 C.3       1 <0>        -0.1478
     28 C24         2.9030   -4.7656    3.7991 C.3       1 <0>         0.1042
     29 H1          2.2697   -5.5279    4.2529 H         1 <0>         0.0821
     30 C25         2.9011   -3.5071    4.6763 C.3       1 <0>        -0.2047
     31 C26         3.6156   -2.4044    3.9260 C.2       1 <0>         0.4980
     32 O1          4.4796   -1.7490    4.4588 O.2       1 <0>        -0.4483
     33 O2          3.2599   -2.1737    2.6453 O.3       1 <0>        -0.3698
     34 O3          4.2367   -5.2632    3.6745 O.3       1 <0>        -0.5634
     35 H2          1.0039    1.9031    0.0027 H         1 <0>         0.0544
     36 H3         -0.5459    1.8868   -0.8726 H         1 <0>         0.0673
     37 H4         -0.5289    1.8773    0.9072 H         1 <0>         0.0661
     38 H5          0.5293   -0.3651    0.8851 H         1 <0>         0.0944
     39 H6         -1.9605   -0.1726   -0.8702 H         1 <0>         0.0671
     40 H7         -1.4185   -1.6235    0.0069 H         1 <0>         0.0532
     41 H8         -1.9435   -0.1821    0.9097 H         1 <0>         0.0656
     42 H9         -1.3158    0.9286   -4.0254 H         1 <0>         0.1474
     43 H10        -2.2277    1.5643   -6.2190 H         1 <0>         0.1422
     44 H11         0.8874   -0.6176   -8.1616 H         1 <0>         0.1422
     45 H12         1.8180   -1.2510   -5.9751 H         1 <0>         0.1467
     46 H13         4.4757   -1.6149   -0.5143 H         1 <0>         0.1420
     47 H14         6.4934   -3.0189   -0.4443 H         1 <0>         0.1418
     48 H15         5.2006   -5.0769   -3.9561 H         1 <0>         0.1419
     49 H16         3.1722   -3.6886   -4.0329 H         1 <0>         0.1404
     50 H17         2.5644   -0.9077    0.9357 H         1 <0>         0.1430
     51 H18         2.5189   -3.6895   -0.3113 H         1 <0>         0.1351
     52 H19         4.2550   -3.7013    1.6671 H         1 <0>         0.0999
     53 H20         1.3384   -4.0322    2.5092 H         1 <0>         0.0985
     54 H21         2.3648   -5.2899    1.7780 H         1 <0>         0.1005
     55 H22         1.8745   -3.2051    4.8834 H         1 <0>         0.1198
     56 H23         3.4207   -3.7110    5.6125 H         1 <0>         0.1095
     57 H24         4.6439   -5.5119    4.5156 H         1 <0>         0.3877
@<TRIPOS>BOND
     1    1    2 1
     2    1   35 1
     3    1   36 1
     4    1   37 1
     5    2    3 1
     6    2    4 1
     7    2   38 1
     8    3   39 1
     9    3   40 1
    10    3   41 1
    11    4    9 ar
    12    4    5 ar
    13    5    6 ar
    14    5   24 1
    15    6    7 ar
    16    6   17 1
    17    7    8 ar
    18    8    9 ar
    19    8   10 1
    20   10   15 ar
    21   10   11 ar
    22   11   12 ar
    23   11   42 1
    24   12   13 ar
    25   12   43 1
    26   13   14 ar
    27   13   16 1
    28   14   15 ar
    29   14   44 1
    30   15   45 1
    31   17   22 ar
    32   17   18 ar
    33   18   19 ar
    34   18   46 1
    35   19   20 ar
    36   19   47 1
    37   20   21 ar
    38   20   23 1
    39   21   22 ar
    40   21   48 1
    41   22   49 1
    42   24   25 2
    43   24   50 1
    44   25   26 1
    45   25   51 1
    46   26   33 1
    47   26   27 1
    48   26   52 1
    49   27   28 1
    50   27   53 1
    51   27   54 1
    52   28   29 1
    53   28   30 1
    54   28   34 1
    55   30   31 1
    56   30   55 1
    57   30   56 1
    58   31   32 2
    59   31   33 1
    60   34   57 1
@<TRIPOS>MOLECULE
CHEMBL155610__1
   57    60     0     0     0
SMALL
USER_CHARGES

@<TRIPOS>ATOM
      1 C1         -0.0187    1.5258    0.0104 C.3       1 <0>        -0.1431
      2 C2          0.0021   -0.0041    0.0020 C.3       1 <0>        -0.0473
      3 C3         -1.4333   -0.5336    0.0129 C.3       1 <0>        -0.1417
      4 C4          0.7074   -0.4901   -1.2379 C.ar      1 <0>         0.2115
      5 C5          1.8541   -1.2847   -1.1356 C.ar      1 <0>        -0.1639
      6 C6          2.4759   -1.7135   -2.3272 C.ar      1 <0>         0.2447
      7 N1          1.9501   -1.3473   -3.4917 N.ar      1 <0>        -0.5073
      8 C7          0.8616   -0.5930   -3.5363 C.ar      1 <0>         0.3753
      9 N2          0.2484   -0.1761   -2.4352 N.ar      1 <0>        -0.5072
     10 C8          0.3086   -0.2076   -4.8560 C.ar      1 <0>        -0.0630
     11 C9         -0.8327    0.5903   -4.9301 C.ar      1 <0>        -0.0386
     12 C10        -1.3438    0.9464   -6.1607 C.ar      1 <0>        -0.1644
     13 C11        -0.7253    0.5122   -7.3224 C.ar      1 <0>         0.1227
     14 C12         0.4089   -0.2813   -7.2537 C.ar      1 <0>        -0.1641
     15 C13         0.9311   -0.6370   -6.0277 C.ar      1 <0>        -0.0396
     16 F1         -1.2297    0.8632   -8.5255 F         1 <0>        -0.1344
     17 C14         3.6928   -2.5562   -2.2814 C.ar      1 <0>        -0.0794
     18 C15         4.6332   -2.3727   -1.2675 C.ar      1 <0>        -0.0485
     19 C16         5.7647   -3.1602   -1.2288 C.ar      1 <0>        -0.1426
     20 C17         5.9685   -4.1324   -2.1954 C.ar      1 <0>         0.1206
     21 C18         5.0373   -4.3182   -3.2049 C.ar      1 <0>        -0.1613
     22 C19         3.8996   -3.5399   -3.2486 C.ar      1 <0>        -0.0455
     23 F2          7.0787   -4.9012   -2.1535 F         1 <0>        -0.1350
     24 C20         2.3986   -1.6636    0.1823 C.2       1 <0>        -0.0872
     25 C21         2.6847   -2.9336    0.4421 C.2       1 <0>        -0.1264
     26 C22         3.2409   -3.3206    1.7882 C.3       1 <0>         0.1435
     27 C23         2.2971   -4.3194    2.4632 C.3       1 <0>        -0.1518
     28 C24         2.8860   -4.7421    3.8128 C.3       1 <0>         0.1102
     29 H1          2.9984   -3.8667    4.4525 H         1 <0>         0.0686
     30 C25         4.2586   -5.3848    3.5756 C.3       1 <0>        -0.2058
     31 C26         5.0865   -4.4389    2.7334 C.2       1 <0>         0.4921
     32 O1          6.2161   -4.1508    3.0509 O.2       1 <0>        -0.4442
     33 O2          4.5271   -3.9265    1.6178 O.3       1 <0>        -0.3583
     34 O3          2.0153   -5.6853    4.4408 O.3       1 <0>        -0.5547
     35 H2          1.0039    1.9031    0.0027 H         1 <0>         0.0543
     36 H3         -0.5459    1.8868   -0.8726 H         1 <0>         0.0682
     37 H4         -0.5289    1.8773    0.9072 H         1 <0>         0.0666
     38 H5          0.5293   -0.3651    0.8851 H         1 <0>         0.0920
     39 H6         -1.9605   -0.1726   -0.8702 H         1 <0>         0.0678
     40 H7         -1.4185   -1.6235    0.0069 H         1 <0>         0.0542
     41 H8         -1.9435   -0.1821    0.9097 H         1 <0>         0.0664
     42 H9         -1.3158    0.9286   -4.0254 H         1 <0>         0.1475
     43 H10        -2.2277    1.5643   -6.2190 H         1 <0>         0.1425
     44 H11         0.8874   -0.6176   -8.1616 H         1 <0>         0.1425
     45 H12         1.8180   -1.2510   -5.9751 H         1 <0>         0.1471
     46 H13         4.4757   -1.6149   -0.5143 H         1 <0>         0.1376
     47 H14         6.4934   -3.0189   -0.4443 H         1 <0>         0.1415
     48 H15         5.2006   -5.0769   -3.9561 H         1 <0>         0.1405
     49 H16         3.1722   -3.6886   -4.0329 H         1 <0>         0.1390
     50 H17         2.5644   -0.9077    0.9357 H         1 <0>         0.1357
     51 H18         2.5189   -3.6895   -0.3113 H         1 <0>         0.1282
     52 H19         3.3370   -2.4316    2.4114 H         1 <0>         0.0865
     53 H20         1.3252   -3.8519    2.6209 H         1 <0>         0.1009
     54 H21         2.1801   -5.1965    1.8267 H         1 <0>         0.0934
     55 H22         4.7544   -5.5557    4.5311 H         1 <0>         0.1084
     56 H23         4.1350   -6.3319    3.0505 H         1 <0>         0.1186
     57 H24         2.3274   -5.9963    5.3016 H         1 <0>         0.3867
@<TRIPOS>BOND
     1    1    2 1
     2    1   35 1
     3    1   36 1
     4    1   37 1
     5    2    3 1
     6    2    4 1
     7    2   38 1
     8    3   39 1
     9    3   40 1
    10    3   41 1
    11    4    9 ar
    12    4    5 ar
    13    5    6 ar
    14    5   24 1
    15    6    7 ar
    16    6   17 1
    17    7    8 ar
    18    8    9 ar
    19    8   10 1
    20   10   15 ar
    21   10   11 ar
    22   11   12 ar
    23   11   42 1
    24   12   13 ar
    25   12   43 1
    26   13   14 ar
    27   13   16 1
    28   14   15 ar
    29   14   44 1
    30   15   45 1
    31   17   22 ar
    32   17   18 ar
    33   18   19 ar
    34   18   46 1
    35   19   20 ar
    36   19   47 1
    37   20   21 ar
    38   20   23 1
    39   21   22 ar
    40   21   48 1
    41   22   49 1
    42   24   25 2
    43   24   50 1
    44   25   26 1
    45   25   51 1
    46   26   33 1
    47   26   27 1
    48   26   52 1
    49   27   28 1
    50   27   53 1
    51   27   54 1
    52   28   29 1
    53   28   30 1
    54   28   34 1
    55   30   31 1
    56   30   55 1
    57   30   56 1
    58   31   32 2
    59   31   33 1
    60   34   57 1
@<TRIPOS>MOLECULE
CHEMBL50444
   19    18     0     0     0
SMALL
USER_CHARGES

@<TRIPOS>ATOM
      1 C1         -0.1253    1.5184    0.0842 C.3       1 <0>        -0.1383
      2 C2          0.0008   -0.0042    0.0029 C.3       1 <0>         0.1783
      3 C3          0.8475   -0.5091    1.1729 C.3       1 <0>        -0.2122
      4 C4          0.9697   -2.0091    1.0942 C.2       1 <0>         0.4960
      5 O1          0.5088   -2.6089    0.1379 O.co2     1 <0>        -0.6847
      6 O2          1.5294   -2.6228    1.9866 O.co2     1 <0>        -0.7187
      7 C5         -1.3911   -0.6356    0.0708 C.3       1 <0>        -0.2132
      8 C6         -2.2251   -0.1383   -1.0817 C.2       1 <0>         0.4991
      9 O3         -1.7502    0.6482   -1.8831 O.co2     1 <0>        -0.6867
     10 O4         -3.3748   -0.5225   -1.2127 O.co2     1 <0>        -0.7314
     11 O5          0.6279   -0.3650   -1.2295 O.3       1 <0>        -0.5615
     12 H1          0.8671    1.9612    0.1688 H         1 <0>         0.0280
     13 H2         -0.6139    1.8911   -0.8160 H         1 <0>         0.0947
     14 H3         -0.7189    1.7876    0.9578 H         1 <0>         0.0378
     15 H4          1.8398   -0.0607    1.1235 H         1 <0>         0.0532
     16 H5          0.3701   -0.2323    2.1129 H         1 <0>         0.0540
     17 H6         -1.3013   -1.7204    0.0128 H         1 <0>         0.0928
     18 H7         -1.8695   -0.3604    1.0108 H         1 <0>         0.0386
     19 H8          0.7407   -1.3180   -1.3492 H         1 <0>         0.3745
@<TRIPOS>BOND
     1    1    2 1
     2    1   12 1
     3    1   13 1
     4    1   14 1
     5    2    3 1
     6    2    7 1
     7    2   11 1
     8    3    4 1
     9    3   15 1
    10    3   16 1
    11    4    5 2
    12    4    6 1
    13    7    8 1
    14    7   17 1
    15    7   18 1
    16    8    9 2
    17    8   10 1
    18   11   19 1
@<TRIPOS>MOLECULE
CHEMBL333904
   62    64     0     0     0
SMALL
USER_CHARGES

@<TRIPOS>ATOM
      1 C1         -0.0187    1.5258    0.0104 C.3       1 <0>        -0.1432
      2 C2          0.0021   -0.0041    0.0020 C.3       1 <0>        -0.0260
      3 C3          0.7421   -0.5109    1.2415 C.3       1 <0>        -0.1423
      4 C4         -1.4117   -0.5257    0.0127 C.2       1 <0>         0.0429
      5 C5         -2.4510    0.0462    0.6498 C.2       1 <0>        -0.1644
      6 C6         -3.5959   -0.7524    0.4096 C.2       1 <0>        -0.1116
      7 C7         -3.1881   -1.8090   -0.3891 C.2       1 <0>         0.0720
      8 N1         -1.8466   -1.6523   -0.6277 N.pl3     1 <0>        -0.3888
      9 C8         -1.0548   -2.5051   -1.3955 C.2       1 <0>         0.0476
     10 C9         -1.0854   -3.8058   -1.1798 C.2       1 <0>        -0.1810
     11 C10        -0.2295   -4.7276   -2.0097 C.3       1 <0>         0.1526
     12 H1         -0.8689   -5.3772   -2.6074 H         1 <0>         0.1152
     13 C11         0.6443   -5.5803   -1.0876 C.3       1 <0>        -0.1797
     14 C12         1.4210   -6.6012   -1.9215 C.3       1 <0>         0.1250
     15 H2          0.7239   -7.1854   -2.5223 H         1 <0>         0.1083
     16 C13         2.1983   -7.5343   -0.9909 C.3       1 <0>        -0.1504
     17 C14         2.8644   -8.6141   -1.8041 C.2       1 <0>         0.4556
     18 O1          2.7311   -8.6353   -3.0048 O.2       1 <0>        -0.4861
     19 O2          3.6059   -9.5524   -1.1945 O.3       1 <0>        -0.3593
     20 C15         4.2080  -10.5456   -2.0271 C.3       1 <0>         0.0336
     21 O3          2.3343   -5.9175   -2.7820 O.3       1 <0>        -0.5299
     22 O4          0.6043   -3.9535   -2.8745 O.3       1 <0>        -0.5381
     23 C16        -4.0426   -2.9013   -0.8946 C.ar      1 <0>        -0.0335
     24 C17        -3.9450   -3.3083   -2.2273 C.ar      1 <0>        -0.0747
     25 C18        -4.7455   -4.3296   -2.6937 C.ar      1 <0>        -0.1497
     26 C19        -5.6456   -4.9519   -1.8431 C.ar      1 <0>         0.1063
     27 C20        -5.7472   -4.5520   -0.5200 C.ar      1 <0>        -0.1495
     28 C21        -4.9478   -3.5357   -0.0407 C.ar      1 <0>        -0.0636
     29 F1         -6.4274   -5.9519   -2.3057 F         1 <0>        -0.1362
     30 C22        -4.9653   -0.5059    0.9148 C.ar      1 <0>         0.0408
     31 C23        -6.0662   -0.5340    0.0512 C.ar      1 <0>        -0.1613
     32 C24        -7.3242   -0.2987    0.5640 C.ar      1 <0>         0.1013
     33 N2         -7.4968   -0.0500    1.8486 N.ar      1 <0>        -0.4897
     34 C25        -6.4862   -0.0143    2.6968 C.ar      1 <0>         0.1002
     35 C26        -5.1954   -0.2439    2.2702 C.ar      1 <0>        -0.1654
     36 H3          1.0039    1.9031    0.0027 H         1 <0>         0.0633
     37 H4         -0.5459    1.8868   -0.8726 H         1 <0>         0.0592
     38 H5         -0.5289    1.8773    0.9072 H         1 <0>         0.0621
     39 H6          0.5123   -0.3556   -0.8948 H         1 <0>         0.0758
     40 H7          0.2319   -0.1594    2.1383 H         1 <0>         0.0613
     41 H8          0.7568   -1.6008    1.2356 H         1 <0>         0.0517
     42 H9          1.7647   -0.1336    1.2338 H         1 <0>         0.0627
     43 H10        -2.4177    0.9513    1.2383 H         1 <0>         0.1442
     44 H11        -0.4164   -2.1005   -2.1670 H         1 <0>         0.1538
     45 H12        -1.7238   -4.2104   -0.4083 H         1 <0>         0.1248
     46 H13         1.3453   -4.9377   -0.5548 H         1 <0>         0.0771
     47 H14         0.0126   -6.1030   -0.3695 H         1 <0>         0.0878
     48 H15         2.9564   -6.9635   -0.4545 H         1 <0>         0.1088
     49 H16         1.5123   -7.9887   -0.2761 H         1 <0>         0.1143
     50 H17         4.7775  -11.2404   -1.4099 H         1 <0>         0.1025
     51 H18         3.4308  -11.0895   -2.5640 H         1 <0>         0.0608
     52 H19         4.8749  -10.0643   -2.7424 H         1 <0>         0.0613
     53 H20         2.9853   -5.3765   -2.3144 H         1 <0>         0.3658
     54 H21         1.2012   -3.3512   -2.4097 H         1 <0>         0.3704
     55 H22        -3.2442   -2.8239   -2.8911 H         1 <0>         0.1305
     56 H23        -4.6712   -4.6450   -3.7239 H         1 <0>         0.1392
     57 H24        -6.4509   -5.0401    0.1381 H         1 <0>         0.1393
     58 H25        -5.0244   -3.2282    0.9917 H         1 <0>         0.1323
     59 H26        -5.9324   -0.7365   -1.0012 H         1 <0>         0.1301
     60 H27        -8.1800   -0.3179   -0.0945 H         1 <0>         0.1540
     61 H28        -6.6735    0.1931    3.7401 H         1 <0>         0.1552
     62 H29        -4.3738   -0.2180    2.9707 H         1 <0>         0.1344
@<TRIPOS>BOND
     1    1    2 1
     2    1   36 1
     3    1   37 1
     4    1   38 1
     5    2    3 1
     6    2    4 1
     7    2   39 1
     8    3   40 1
     9    3   41 1
    10    3   42 1
    11    4    8 1
    12    4    5 2
    13    5    6 1
    14    5   43 1
    15    6    7 2
    16    6   30 1
    17    7    8 1
    18    7   23 1
    19    8    9 1
    20    9   10 2
    21    9   44 1
    22   10   11 1
    23   10   45 1
    24   11   12 1
    25   11   13 1
    26   11   22 1
    27   13   14 1
    28   13   46 1
    29   13   47 1
    30   14   15 1
    31   14   16 1
    32   14   21 1
    33   16   17 1
    34   16   48 1
    35   16   49 1
    36   17   18 2
    37   17   19 1
    38   19   20 1
    39   20   50 1
    40   20   51 1
    41   20   52 1
    42   21   53 1
    43   22   54 1
    44   23   28 ar
    45   23   24 ar
    46   24   25 ar
    47   24   55 1
    48   25   26 ar
    49   25   56 1
    50   26   27 ar
    51   26   29 1
    52   27   28 ar
    53   27   57 1
    54   28   58 1
    55   30   35 ar
    56   30   31 ar
    57   31   32 ar
    58   31   59 1
    59   32   33 ar
    60   32   60 1
    61   33   34 ar
    62   34   35 ar
    63   34   61 1
    64   35   62 1
@<TRIPOS>MOLECULE
CHEMBL329307
   61    63     0     0     0
SMALL
USER_CHARGES

@<TRIPOS>ATOM
      1 C1         -0.0187    1.5258    0.0104 C.3       1 <0>        -0.1405
      2 C2          0.0021   -0.0041    0.0020 C.3       1 <0>        -0.0605
      3 C3          0.7421   -0.5109    1.2415 C.3       1 <0>        -0.1444
      4 C4         -1.4117   -0.5257    0.0127 C.ar      1 <0>        -0.0846
      5 C5         -2.2560   -0.2036    1.0557 C.ar      1 <0>        -0.0895
      6 C6         -3.5652   -0.6830    1.0715 C.ar      1 <0>        -0.0521
      7 C7         -4.0236   -1.4888    0.0333 C.ar      1 <0>        -0.0881
      8 C8         -3.1725   -1.8131   -1.0174 C.ar      1 <0>        -0.0589
      9 C9         -1.8621   -1.3230   -1.0280 C.ar      1 <0>         0.1187
     10 O1         -1.0294   -1.6330   -2.0554 O.3       1 <0>        -0.3157
     11 C10        -0.2440   -2.8189   -1.9187 C.3       1 <0>         0.0375
     12 C11         0.6249   -3.0017   -3.1647 C.3       1 <0>         0.1198
     13 C12         1.3720   -4.3338   -3.0746 C.3       1 <0>        -0.1846
     14 C13         2.1430   -4.5750   -4.3739 C.3       1 <0>         0.1402
     15 H1          1.4573   -4.5176   -5.2193 H         1 <0>         0.0945
     16 C14         2.7885   -5.9616   -4.3341 C.3       1 <0>        -0.2191
     17 C15         3.4442   -6.2489   -5.6602 C.2       1 <0>         0.4907
     18 O2          3.3994   -5.4212   -6.5543 O.co2     1 <0>        -0.6802
     19 O3          4.0194   -7.3089   -5.8389 O.co2     1 <0>        -0.7125
     20 O4          3.1592   -3.5805   -4.5165 O.3       1 <0>        -0.5265
     21 O5          1.5679   -1.9314   -3.2490 O.3       1 <0>        -0.5307
     22 C16        -3.6544   -2.6718   -2.1269 C.ar      1 <0>        -0.0611
     23 C17        -3.4629   -2.2773   -3.4498 C.ar      1 <0>        -0.0555
     24 C18        -3.9128   -3.0791   -4.4786 C.ar      1 <0>        -0.1523
     25 C19        -4.5544   -4.2746   -4.1982 C.ar      1 <0>         0.1045
     26 C20        -4.7473   -4.6705   -2.8846 C.ar      1 <0>        -0.1562
     27 C21        -4.2948   -3.8781   -1.8496 C.ar      1 <0>        -0.0797
     28 F1         -4.9937   -5.0564   -5.2087 F         1 <0>        -0.1381
     29 C22        -4.4694   -0.3347    2.1951 C.ar      1 <0>        -0.0473
     30 C23        -4.0141    0.4763    3.2329 C.ar      1 <0>        -0.0830
     31 C24        -4.8586    0.7981    4.2755 C.ar      1 <0>        -0.1489
     32 C25        -6.1573    0.3159    4.2919 C.ar      1 <0>         0.0958
     33 C26        -6.6141   -0.4907    3.2623 C.ar      1 <0>        -0.1487
     34 C27        -5.7783   -0.8128    2.2128 C.ar      1 <0>        -0.0833
     35 F2         -6.9805    0.6327    5.3152 F         1 <0>        -0.1397
     36 H2          1.0039    1.9031    0.0027 H         1 <0>         0.0603
     37 H3         -0.5459    1.8868   -0.8726 H         1 <0>         0.0578
     38 H4         -0.5289    1.8773    0.9072 H         1 <0>         0.0526
     39 H5          0.5123   -0.3556   -0.8948 H         1 <0>         0.0932
     40 H6          0.2319   -0.1594    2.1383 H         1 <0>         0.0546
     41 H7          0.7568   -1.6008    1.2356 H         1 <0>         0.0533
     42 H8          1.7647   -0.1336    1.2338 H         1 <0>         0.0617
     43 H9         -1.9016    0.4213    1.8621 H         1 <0>         0.1297
     44 H10        -5.0372   -1.8614    0.0440 H         1 <0>         0.1310
     45 H11         0.3949   -2.7323   -1.0398 H         1 <0>         0.0546
     46 H12        -0.9027   -3.6800   -1.8056 H         1 <0>         0.0592
     47 H13        -0.0078   -2.9993   -4.0523 H         1 <0>         0.1055
     48 H14         2.0703   -4.3029   -2.2382 H         1 <0>         0.0656
     49 H15         0.6568   -5.1419   -2.9211 H         1 <0>         0.0759
     50 H16         3.5388   -5.9906   -3.5439 H         1 <0>         0.0568
     51 H17         2.0238   -6.7128   -4.1366 H         1 <0>         0.0613
     52 H18         3.8062   -3.5735   -3.7979 H         1 <0>         0.3502
     53 H19         2.1652   -1.8728   -2.4908 H         1 <0>         0.3630
     54 H20        -2.9635   -1.3452   -3.6693 H         1 <0>         0.1389
     55 H21        -3.7649   -2.7741   -5.5041 H         1 <0>         0.1394
     56 H22        -5.2486   -5.6028   -2.6705 H         1 <0>         0.1364
     57 H23        -4.4413   -4.1898   -0.8260 H         1 <0>         0.1317
     58 H24        -3.0017    0.8521    3.2212 H         1 <0>         0.1359
     59 H25        -4.5065    1.4266    5.0802 H         1 <0>         0.1376
     60 H26        -7.6272   -0.8645    3.2790 H         1 <0>         0.1377
     61 H27        -6.1366   -1.4379    1.4083 H         1 <0>         0.1363
@<TRIPOS>BOND
     1    1    2 1
     2    1   36 1
     3    1   37 1
     4    1   38 1
     5    2    3 1
     6    2    4 1
     7    2   39 1
     8    3   40 1
     9    3   41 1
    10    3   42 1
    11    4    9 ar
    12    4    5 ar
    13    5    6 ar
    14    5   43 1
    15    6    7 ar
    16    6   29 1
    17    7    8 ar
    18    7   44 1
    19    8    9 ar
    20    8   22 1
    21    9   10 1
    22   10   11 1
    23   11   12 1
    24   11   45 1
    25   11   46 1
    26   12   13 1
    27   12   21 1
    28   12   47 1
    29   13   14 1
    30   13   48 1
    31   13   49 1
    32   14   15 1
    33   14   16 1
    34   14   20 1
    35   16   17 1
    36   16   50 1
    37   16   51 1
    38   17   18 2
    39   17   19 1
    40   20   52 1
    41   21   53 1
    42   22   27 ar
    43   22   23 ar
    44   23   24 ar
    45   23   54 1
    46   24   25 ar
    47   24   55 1
    48   25   26 ar
    49   25   28 1
    50   26   27 ar
    51   26   56 1
    52   27   57 1
    53   29   34 ar
    54   29   30 ar
    55   30   31 ar
    56   30   58 1
    57   31   32 ar
    58   31   59 1
    59   32   33 ar
    60   32   35 1
    61   33   34 ar
    62   33   60 1
    63   34   61 1
@<TRIPOS>MOLECULE
CHEMBL329307__1
   61    63     0     0     0
SMALL
USER_CHARGES

@<TRIPOS>ATOM
      1 C1         -0.0187    1.5258    0.0104 C.3       1 <0>        -0.1412
      2 C2          0.0021   -0.0041    0.0020 C.3       1 <0>        -0.0603
      3 C3          0.7421   -0.5109    1.2415 C.3       1 <0>        -0.1445
      4 C4         -1.4117   -0.5257    0.0127 C.ar      1 <0>        -0.0853
      5 C5         -2.2560   -0.2036    1.0557 C.ar      1 <0>        -0.0892
      6 C6         -3.5652   -0.6830    1.0715 C.ar      1 <0>        -0.0520
      7 C7         -4.0236   -1.4888    0.0333 C.ar      1 <0>        -0.0885
      8 C8         -3.1725   -1.8131   -1.0174 C.ar      1 <0>        -0.0582
      9 C9         -1.8621   -1.3230   -1.0280 C.ar      1 <0>         0.1183
     10 O1         -1.0294   -1.6330   -2.0554 O.3       1 <0>        -0.3157
     11 C10        -0.2440   -2.8189   -1.9187 C.3       1 <0>         0.0380
     12 C11         0.6249   -3.0017   -3.1647 C.3       1 <0>         0.1173
     13 C12         1.5553   -4.1999   -2.9664 C.3       1 <0>        -0.1839
     14 C13         2.5092   -4.3076   -4.1579 C.3       1 <0>         0.1380
     15 H1          1.9327   -4.3532   -5.0818 H         1 <0>         0.1041
     16 C14         3.3548   -5.5754   -4.0212 C.3       1 <0>        -0.2185
     17 C15         4.2062   -5.7465   -5.2528 C.2       1 <0>         0.4906
     18 O2          4.1425   -4.9302   -6.1562 O.co2     1 <0>        -0.6799
     19 O3          4.9586   -6.7013   -5.3459 O.co2     1 <0>        -0.7124
     20 O4          3.3660   -3.1644   -4.1869 O.3       1 <0>        -0.5399
     21 O5         -0.2124   -3.2315   -4.2997 O.3       1 <0>        -0.5414
     22 C16        -3.6544   -2.6718   -2.1269 C.ar      1 <0>        -0.0625
     23 C17        -3.4629   -2.2773   -3.4498 C.ar      1 <0>        -0.0466
     24 C18        -3.9128   -3.0791   -4.4786 C.ar      1 <0>        -0.1493
     25 C19        -4.5544   -4.2746   -4.1982 C.ar      1 <0>         0.1029
     26 C20        -4.7473   -4.6705   -2.8846 C.ar      1 <0>        -0.1584
     27 C21        -4.2948   -3.8781   -1.8496 C.ar      1 <0>        -0.0807
     28 F1         -4.9937   -5.0564   -5.2087 F         1 <0>        -0.1392
     29 C22        -4.4694   -0.3347    2.1951 C.ar      1 <0>        -0.0474
     30 C23        -4.0141    0.4763    3.2329 C.ar      1 <0>        -0.0830
     31 C24        -4.8586    0.7981    4.2755 C.ar      1 <0>        -0.1489
     32 C25        -6.1573    0.3159    4.2919 C.ar      1 <0>         0.0958
     33 C26        -6.6141   -0.4907    3.2623 C.ar      1 <0>        -0.1487
     34 C27        -5.7783   -0.8128    2.2128 C.ar      1 <0>        -0.0833
     35 F2         -6.9805    0.6327    5.3152 F         1 <0>        -0.1397
     36 H2          1.0039    1.9031    0.0027 H         1 <0>         0.0606
     37 H3         -0.5459    1.8868   -0.8726 H         1 <0>         0.0579
     38 H4         -0.5289    1.8773    0.9072 H         1 <0>         0.0535
     39 H5          0.5123   -0.3556   -0.8948 H         1 <0>         0.0899
     40 H6          0.2319   -0.1594    2.1383 H         1 <0>         0.0551
     41 H7          0.7568   -1.6008    1.2356 H         1 <0>         0.0540
     42 H8          1.7647   -0.1336    1.2338 H         1 <0>         0.0620
     43 H9         -1.9016    0.4213    1.8621 H         1 <0>         0.1298
     44 H10        -5.0372   -1.8614    0.0440 H         1 <0>         0.1308
     45 H11         0.3949   -2.7323   -1.0398 H         1 <0>         0.0603
     46 H12        -0.9027   -3.6800   -1.8056 H         1 <0>         0.0536
     47 H13         1.2196   -2.1029   -3.3280 H         1 <0>         0.1143
     48 H14         2.1313   -4.0651   -2.0509 H         1 <0>         0.0705
     49 H15         0.9627   -5.1117   -2.8919 H         1 <0>         0.0714
     50 H16         3.9969   -5.4911   -3.1445 H         1 <0>         0.0568
     51 H17         2.6992   -6.4391   -3.9098 H         1 <0>         0.0620
     52 H18         3.9101   -3.0604   -3.3943 H         1 <0>         0.3538
     53 H19        -0.7711   -4.0171   -4.2237 H         1 <0>         0.3658
     54 H20        -2.9635   -1.3452   -3.6693 H         1 <0>         0.1388
     55 H21        -3.7649   -2.7741   -5.5041 H         1 <0>         0.1392
     56 H22        -5.2486   -5.6028   -2.6705 H         1 <0>         0.1351
     57 H23        -4.4413   -4.1898   -0.8260 H         1 <0>         0.1305
     58 H24        -3.0017    0.8521    3.2212 H         1 <0>         0.1360
     59 H25        -4.5065    1.4266    5.0802 H         1 <0>         0.1376
     60 H26        -7.6272   -0.8645    3.2790 H         1 <0>         0.1377
     61 H27        -6.1366   -1.4379    1.4083 H         1 <0>         0.1363
@<TRIPOS>BOND
     1    1    2 1
     2    1   36 1
     3    1   37 1
     4    1   38 1
     5    2    3 1
     6    2    4 1
     7    2   39 1
     8    3   40 1
     9    3   41 1
    10    3   42 1
    11    4    9 ar
    12    4    5 ar
    13    5    6 ar
    14    5   43 1
    15    6    7 ar
    16    6   29 1
    17    7    8 ar
    18    7   44 1
    19    8    9 ar
    20    8   22 1
    21    9   10 1
    22   10   11 1
    23   11   12 1
    24   11   45 1
    25   11   46 1
    26   12   13 1
    27   12   21 1
    28   12   47 1
    29   13   14 1
    30   13   48 1
    31   13   49 1
    32   14   15 1
    33   14   16 1
    34   14   20 1
    35   16   17 1
    36   16   50 1
    37   16   51 1
    38   17   18 2
    39   17   19 1
    40   20   52 1
    41   21   53 1
    42   22   27 ar
    43   22   23 ar
    44   23   24 ar
    45   23   54 1
    46   24   25 ar
    47   24   55 1
    48   25   26 ar
    49   25   28 1
    50   26   27 ar
    51   26   56 1
    52   27   57 1
    53   29   34 ar
    54   29   30 ar
    55   30   31 ar
    56   30   58 1
    57   31   32 ar
    58   31   59 1
    59   32   33 ar
    60   32   35 1
    61   33   34 ar
    62   33   60 1
    63   34   61 1
@<TRIPOS>MOLECULE
CHEMBL293461
   56    58     0     0     0
SMALL
USER_CHARGES

@<TRIPOS>ATOM
      1 C1         -0.0187    1.5258    0.0104 C.3       1 <0>        -0.1440
      2 C2          0.0021   -0.0041    0.0020 C.3       1 <0>        -0.0154
      3 C3          0.7421   -0.5109    1.2415 C.3       1 <0>        -0.1441
      4 C4         -1.4117   -0.5257    0.0127 C.2       1 <0>         0.1214
      5 C5         -1.9929   -1.3462   -0.9741 C.2       1 <0>        -0.1630
      6 C6         -3.3033   -1.5967   -0.5821 C.2       1 <0>         0.1465
      7 N1         -3.4954   -0.9443    0.6027 N.pl3     1 <0>        -0.3206
      8 N2         -2.3013   -0.2974    0.9411 N.2       1 <0>        -0.2734
      9 C7         -4.6760   -0.9294    1.3487 C.ar      1 <0>         0.3235
     10 C8         -4.6319   -0.6946    2.7197 C.ar      1 <0>         0.0678
     11 N3         -5.7496   -0.6813    3.4214 N.ar      1 <0>        -0.4154
     12 C9         -6.9100   -0.8907    2.8231 C.ar      1 <0>         0.0343
     13 C10        -6.9571   -1.1247    1.4611 C.ar      1 <0>         0.0847
     14 N4         -5.8421   -1.1335    0.7514 N.ar      1 <0>        -0.4465
     15 C11        -4.2975   -2.4121   -1.3078 C.ar      1 <0>        -0.0355
     16 C12        -4.4494   -2.2671   -2.6886 C.ar      1 <0>        -0.0478
     17 C13        -5.3796   -3.0313   -3.3611 C.ar      1 <0>        -0.1512
     18 C14        -6.1628   -3.9419   -2.6695 C.ar      1 <0>         0.1138
     19 C15        -6.0167   -4.0897   -1.2992 C.ar      1 <0>        -0.1551
     20 C16        -5.0855   -3.3354   -0.6171 C.ar      1 <0>        -0.0469
     21 F1         -7.0725   -4.6880   -3.3336 F         1 <0>        -0.1368
     22 C17        -1.3338   -1.8465   -2.1967 C.2       1 <0>        -0.0933
     23 C18        -1.3912   -3.1369   -2.5008 C.2       1 <0>        -0.1620
     24 C19        -0.7183   -3.6476   -3.7489 C.3       1 <0>         0.1428
     25 C20         0.2475   -4.7761   -3.3822 C.3       1 <0>        -0.1806
     26 C21         0.8370   -5.3780   -4.6593 C.3       1 <0>         0.1374
     27 H1          0.0287   -5.6947   -5.3184 H         1 <0>         0.0931
     28 C22         1.7053   -6.5855   -4.3005 C.3       1 <0>        -0.2192
     29 C23         2.1861   -7.2517   -5.5638 C.2       1 <0>         0.4905
     30 O1          1.8642   -6.8023   -6.6505 O.co2     1 <0>        -0.6810
     31 O2          2.8971   -8.2401   -5.4992 O.co2     1 <0>        -0.7135
     32 O3          1.6364   -4.3970   -5.3233 O.3       1 <0>        -0.5279
     33 O4          0.0061   -2.5832   -4.3690 O.3       1 <0>        -0.5381
     34 H2          1.0039    1.9031    0.0027 H         1 <0>         0.0655
     35 H3         -0.5459    1.8868   -0.8726 H         1 <0>         0.0570
     36 H4         -0.5289    1.8773    0.9072 H         1 <0>         0.0602
     37 H5          0.5123   -0.3556   -0.8948 H         1 <0>         0.0966
     38 H6          0.7568   -1.6008    1.2356 H         1 <0>         0.0575
     39 H7          1.7647   -0.1336    1.2338 H         1 <0>         0.0655
     40 H8          0.2319   -0.1594    2.1383 H         1 <0>         0.0605
     41 H9         -3.6842   -0.5239    3.2088 H         1 <0>         0.1787
     42 H10        -7.8232   -0.8793    3.3996 H         1 <0>         0.1780
     43 H11        -7.9066   -1.2957    0.9758 H         1 <0>         0.1801
     44 H12        -3.8399   -1.5575   -3.2284 H         1 <0>         0.1388
     45 H13        -5.4982   -2.9198   -4.4288 H         1 <0>         0.1423
     46 H14        -6.6302   -4.8004   -0.7653 H         1 <0>         0.1360
     47 H15        -4.9689   -3.4551    0.4499 H         1 <0>         0.1158
     48 H16        -0.8048   -1.1622   -2.8435 H         1 <0>         0.1326
     49 H17        -1.9202   -3.8211   -1.8540 H         1 <0>         0.1107
     50 H18        -1.4723   -4.0248   -4.4397 H         1 <0>         0.1079
     51 H19         1.0518   -4.3791   -2.7628 H         1 <0>         0.0645
     52 H20        -0.2886   -5.5483   -2.8305 H         1 <0>         0.0742
     53 H21         2.5631   -6.2550   -3.7148 H         1 <0>         0.0564
     54 H22         1.1182   -7.2945   -3.7166 H         1 <0>         0.0607
     55 H23         2.3765   -4.0692   -4.7944 H         1 <0>         0.3501
     56 H24         0.6953   -2.1987   -3.8102 H         1 <0>         0.3660
@<TRIPOS>BOND
     1    1    2 1
     2    1   34 1
     3    1   35 1
     4    1   36 1
     5    2    3 1
     6    2    4 1
     7    2   37 1
     8    3   38 1
     9    3   39 1
    10    3   40 1
    11    4    8 2
    12    4    5 1
    13    5    6 2
    14    5   22 1
    15    6    7 1
    16    6   15 1
    17    7    8 1
    18    7    9 1
    19    9   14 ar
    20    9   10 ar
    21   10   11 ar
    22   10   41 1
    23   11   12 ar
    24   12   13 ar
    25   12   42 1
    26   13   14 ar
    27   13   43 1
    28   15   20 ar
    29   15   16 ar
    30   16   17 ar
    31   16   44 1
    32   17   18 ar
    33   17   45 1
    34   18   19 ar
    35   18   21 1
    36   19   20 ar
    37   19   46 1
    38   20   47 1
    39   22   23 2
    40   22   48 1
    41   23   24 1
    42   23   49 1
    43   24   25 1
    44   24   33 1
    45   24   50 1
    46   25   26 1
    47   25   51 1
    48   25   52 1
    49   26   27 1
    50   26   28 1
    51   26   32 1
    52   28   29 1
    53   28   53 1
    54   28   54 1
    55   29   30 2
    56   29   31 1
    57   32   55 1
    58   33   56 1
@<TRIPOS>MOLECULE
CHEMBL293461__1
   56    58     0     0     0
SMALL
USER_CHARGES

@<TRIPOS>ATOM
      1 C1         -0.0187    1.5258    0.0104 C.3       1 <0>        -0.1438
      2 C2          0.0021   -0.0041    0.0020 C.3       1 <0>        -0.0167
      3 C3          0.7421   -0.5109    1.2415 C.3       1 <0>        -0.1439
      4 C4         -1.4117   -0.5257    0.0127 C.2       1 <0>         0.1228
      5 C5         -1.9929   -1.3462   -0.9741 C.2       1 <0>        -0.1672
      6 C6         -3.3033   -1.5967   -0.5821 C.2       1 <0>         0.1495
      7 N1         -3.4954   -0.9443    0.6027 N.pl3     1 <0>        -0.3205
      8 N2         -2.3013   -0.2974    0.9411 N.2       1 <0>        -0.2732
      9 C7         -4.6760   -0.9294    1.3487 C.ar      1 <0>         0.3233
     10 C8         -4.6319   -0.6946    2.7197 C.ar      1 <0>         0.0681
     11 N3         -5.7496   -0.6813    3.4214 N.ar      1 <0>        -0.4154
     12 C9         -6.9100   -0.8907    2.8231 C.ar      1 <0>         0.0345
     13 C10        -6.9571   -1.1247    1.4611 C.ar      1 <0>         0.0847
     14 N4         -5.8421   -1.1335    0.7514 N.ar      1 <0>        -0.4463
     15 C11        -4.2975   -2.4121   -1.3078 C.ar      1 <0>        -0.0373
     16 C12        -4.4494   -2.2671   -2.6886 C.ar      1 <0>        -0.0440
     17 C13        -5.3796   -3.0313   -3.3611 C.ar      1 <0>        -0.1476
     18 C14        -6.1628   -3.9419   -2.6695 C.ar      1 <0>         0.1134
     19 C15        -6.0167   -4.0897   -1.2992 C.ar      1 <0>        -0.1562
     20 C16        -5.0855   -3.3354   -0.6171 C.ar      1 <0>        -0.0473
     21 F1         -7.0725   -4.6880   -3.3336 F         1 <0>        -0.1372
     22 C17        -1.3338   -1.8465   -2.1967 C.2       1 <0>        -0.0813
     23 C18        -1.3912   -3.1369   -2.5008 C.2       1 <0>        -0.1598
     24 C19        -0.7183   -3.6476   -3.7489 C.3       1 <0>         0.1415
     25 C20         0.3370   -4.6885   -3.3698 C.3       1 <0>        -0.1818
     26 C21         1.1052   -5.1153   -4.6222 C.3       1 <0>         0.1355
     27 H1          0.4021   -5.4647   -5.3783 H         1 <0>         0.1023
     28 C22         2.0740   -6.2447   -4.2661 C.3       1 <0>        -0.2184
     29 C23         2.7411   -6.7484   -5.5200 C.2       1 <0>         0.4905
     30 O1          2.4671   -6.2502   -6.5985 O.co2     1 <0>        -0.6806
     31 O2          3.5549   -7.6540   -5.4559 O.co2     1 <0>        -0.7132
     32 O3          1.8396   -4.0012   -5.1334 O.3       1 <0>        -0.5413
     33 O4         -1.6933   -4.2474   -4.6042 O.3       1 <0>        -0.5477
     34 H2          1.0039    1.9031    0.0027 H         1 <0>         0.0658
     35 H3         -0.5459    1.8868   -0.8726 H         1 <0>         0.0568
     36 H4         -0.5289    1.8773    0.9072 H         1 <0>         0.0604
     37 H5          0.5123   -0.3556   -0.8948 H         1 <0>         0.0972
     38 H6          0.7568   -1.6008    1.2356 H         1 <0>         0.0577
     39 H7          1.7647   -0.1336    1.2338 H         1 <0>         0.0658
     40 H8          0.2319   -0.1594    2.1383 H         1 <0>         0.0605
     41 H9         -3.6842   -0.5239    3.2088 H         1 <0>         0.1788
     42 H10        -7.8232   -0.8793    3.3996 H         1 <0>         0.1781
     43 H11        -7.9066   -1.2957    0.9758 H         1 <0>         0.1801
     44 H12        -3.8399   -1.5575   -3.2284 H         1 <0>         0.1379
     45 H13        -5.4982   -2.9198   -4.4288 H         1 <0>         0.1426
     46 H14        -6.6302   -4.8004   -0.7653 H         1 <0>         0.1353
     47 H15        -4.9689   -3.4551    0.4499 H         1 <0>         0.1152
     48 H16        -0.8048   -1.1622   -2.8435 H         1 <0>         0.1268
     49 H17        -1.9202   -3.8211   -1.8540 H         1 <0>         0.1072
     50 H18        -0.2398   -2.8178   -4.2691 H         1 <0>         0.1095
     51 H19         1.0302   -4.2568   -2.6479 H         1 <0>         0.0698
     52 H20        -0.1517   -5.5576   -2.9294 H         1 <0>         0.0689
     53 H21         2.8311   -5.8702   -3.5771 H         1 <0>         0.0565
     54 H22         1.5247   -7.0594   -3.7944 H         1 <0>         0.0613
     55 H23         2.4857   -3.6377   -4.5124 H         1 <0>         0.3537
     56 H24        -2.1599   -4.9946   -4.2055 H         1 <0>         0.3689
@<TRIPOS>BOND
     1    1    2 1
     2    1   34 1
     3    1   35 1
     4    1   36 1
     5    2    3 1
     6    2    4 1
     7    2   37 1
     8    3   38 1
     9    3   39 1
    10    3   40 1
    11    4    8 2
    12    4    5 1
    13    5    6 2
    14    5   22 1
    15    6    7 1
    16    6   15 1
    17    7    8 1
    18    7    9 1
    19    9   14 ar
    20    9   10 ar
    21   10   11 ar
    22   10   41 1
    23   11   12 ar
    24   12   13 ar
    25   12   42 1
    26   13   14 ar
    27   13   43 1
    28   15   20 ar
    29   15   16 ar
    30   16   17 ar
    31   16   44 1
    32   17   18 ar
    33   17   45 1
    34   18   19 ar
    35   18   21 1
    36   19   20 ar
    37   19   46 1
    38   20   47 1
    39   22   23 2
    40   22   48 1
    41   23   24 1
    42   23   49 1
    43   24   25 1
    44   24   33 1
    45   24   50 1
    46   25   26 1
    47   25   51 1
    48   25   52 1
    49   26   27 1
    50   26   28 1
    51   26   32 1
    52   28   29 1
    53   28   53 1
    54   28   54 1
    55   29   30 2
    56   29   31 1
    57   32   55 1
    58   33   56 1
@<TRIPOS>MOLECULE
CHEMBL84252
   71    73     0     0     0
SMALL
USER_CHARGES

@<TRIPOS>ATOM
      1 C1          0.7603    1.9742    0.1360 C.3       1 <0>        -0.1559
      2 C2          0.5725    0.4631   -0.0129 C.3       1 <0>        -0.1030
      3 C3          1.3546   -0.0303   -1.2319 C.3       1 <0>        -0.0556
      4 C4          0.8385    0.6741   -2.4883 C.3       1 <0>        -0.1432
      5 C5          2.8405    0.2831   -1.0456 C.3       1 <0>        -0.1353
      6 C6          1.1696   -1.5186   -1.3787 C.2       1 <0>         0.4715
      7 O1          0.4828   -2.1228   -0.5893 O.2       1 <0>        -0.5055
      8 O2          1.7680   -2.1732   -2.3863 O.3       1 <0>        -0.3313
      9 C7          1.5492   -3.5821   -2.4646 C.3       1 <0>         0.0876
     10 H1          1.3908   -3.9798   -1.4621 H         1 <0>         0.0965
     11 C8          0.2506   -3.7985   -3.2619 C.3       1 <0>        -0.1321
     12 C9         -0.1175   -5.2838   -3.2369 C.3       1 <0>        -0.1369
     13 H2         -0.3372   -5.5933   -2.2163 H         1 <0>         0.1072
     14 C10         1.0620   -6.0706   -3.7665 C.2       1 <0>         0.3662
     15 O3          0.9162   -6.8789   -4.6533 O.2       1 <0>        -0.4430
     16 C11         2.4199   -5.8162   -3.1572 C.3       1 <0>        -0.1270
     17 H3          3.1944   -6.3236   -3.7326 H         1 <0>         0.1066
     18 C12         2.6945   -4.3019   -3.1531 C.3       1 <0>        -0.0578
     19 C13         4.0700   -4.0706   -2.5611 C.3       1 <0>        -0.0686
     20 H4          4.7915   -4.5930   -3.2359 H         1 <0>         0.0669
     21 C14         4.2690   -4.6701   -1.1804 C.3       1 <0>        -0.0842
     22 H5          5.3618   -4.6619   -0.9744 H         1 <0>         0.0691
     23 C15         3.8153   -6.1219   -1.1066 C.3       1 <0>        -0.1109
     24 C16         2.4286   -6.3155   -1.7113 C.3       1 <0>        -0.1127
     25 C17         3.6100   -3.8304   -0.0910 C.3       1 <0>        -0.1571
     26 C18         4.4765   -2.6001   -2.5738 C.3       1 <0>        -0.1197
     27 C19         5.9177   -2.4651   -2.0782 C.3       1 <0>        -0.1192
     28 C20         6.3254   -0.9905   -2.0909 C.3       1 <0>         0.1102
     29 C21         7.8030   -0.8653   -1.7102 C.3       1 <0>        -0.1537
     30 C22         8.1970    0.6149   -1.6836 C.3       1 <0>         0.1043
     31 H6          9.2453    0.7088   -1.4003 H         1 <0>         0.0774
     32 C23         7.3201    1.3432   -0.6570 C.3       1 <0>        -0.2068
     33 C24         5.8719    1.0254   -0.9591 C.2       1 <0>         0.4953
     34 O4          5.0450    1.9034   -1.0312 O.2       1 <0>        -0.4474
     35 O5          5.5305   -0.2665   -1.1452 O.3       1 <0>        -0.3609
     36 O6          7.9979    1.1866   -2.9781 O.3       1 <0>        -0.5632
     37 C25        -1.3383   -5.5283   -4.1252 C.3       1 <0>        -0.1398
     38 H7          1.8189    2.1975    0.2688 H         1 <0>         0.0628
     39 H8          0.3926    2.4760   -0.7590 H         1 <0>         0.0589
     40 H9          0.2031    2.3257    1.0045 H         1 <0>         0.0573
     41 H10         0.9402   -0.0387    0.8821 H         1 <0>         0.0689
     42 H11        -0.4861    0.2398   -0.1457 H         1 <0>         0.0677
     43 H12         0.9722    1.7507   -2.3821 H         1 <0>         0.0756
     44 H13         1.3956    0.3226   -3.3567 H         1 <0>         0.0679
     45 H14        -0.2201    0.4509   -2.6210 H         1 <0>         0.0571
     46 H15         3.2082   -0.2187   -0.1505 H         1 <0>         0.0536
     47 H16         3.3976   -0.0683   -1.9140 H         1 <0>         0.0725
     48 H17         2.9742    1.3597   -0.9394 H         1 <0>         0.0859
     49 H18        -0.5472   -3.2138   -2.8076 H         1 <0>         0.0820
     50 H19         0.4069   -3.4759   -4.2897 H         1 <0>         0.0780
     51 H20         2.7166   -3.9768   -4.2074 H         1 <0>         0.0812
     52 H21         4.5314   -6.7530   -1.6435 H         1 <0>         0.0644
     53 H22         3.7979   -6.4436   -0.0600 H         1 <0>         0.0690
     54 H23         1.6858   -5.7774   -1.1266 H         1 <0>         0.0725
     55 H24         2.1780   -7.3805   -1.7014 H         1 <0>         0.0685
     56 H25         2.5275   -3.8580   -0.2159 H         1 <0>         0.0558
     57 H26         3.8732   -4.2329    0.8872 H         1 <0>         0.0534
     58 H27         3.9582   -2.8002   -0.1657 H         1 <0>         0.0638
     59 H28         4.4038   -2.2118   -3.5897 H         1 <0>         0.0651
     60 H29         3.8130   -2.0340   -1.9202 H         1 <0>         0.0921
     61 H30         5.9904   -2.8534   -1.0623 H         1 <0>         0.0798
     62 H31         6.5813   -3.0312   -2.7319 H         1 <0>         0.0842
     63 H32         6.1698   -0.5785   -3.0880 H         1 <0>         0.0850
     64 H33         7.9627   -1.3019   -0.7243 H         1 <0>         0.0946
     65 H34         8.4136   -1.3910   -2.4443 H         1 <0>         0.0963
     66 H35         7.5694    1.0014    0.3475 H         1 <0>         0.1163
     67 H36         7.4835    2.4183   -0.7310 H         1 <0>         0.1063
     68 H37         8.2279    2.1242   -3.0336 H         1 <0>         0.3859
     69 H38        -1.1087   -5.2305   -5.1483 H         1 <0>         0.0606
     70 H39        -1.5967   -6.5871   -4.1043 H         1 <0>         0.0648
     71 H40        -2.1796   -4.9417   -3.7561 H         1 <0>         0.0642
@<TRIPOS>BOND
     1    1    2 1
     2    1   38 1
     3    1   39 1
     4    1   40 1
     5    2    3 1
     6    2   41 1
     7    2   42 1
     8    3    4 1
     9    3    5 1
    10    3    6 1
    11    4   43 1
    12    4   44 1
    13    4   45 1
    14    5   46 1
    15    5   47 1
    16    5   48 1
    17    6    7 2
    18    6    8 1
    19    8    9 1
    20    9   10 1
    21    9   18 1
    22    9   11 1
    23   11   12 1
    24   11   49 1
    25   11   50 1
    26   12   13 1
    27   12   14 1
    28   12   37 1
    29   14   15 2
    30   14   16 1
    31   16   17 1
    32   16   24 1
    33   16   18 1
    34   18   19 1
    35   18   51 1
    36   19   20 1
    37   19   21 1
    38   19   26 1
    39   21   22 1
    40   21   23 1
    41   21   25 1
    42   23   24 1
    43   23   52 1
    44   23   53 1
    45   24   54 1
    46   24   55 1
    47   25   56 1
    48   25   57 1
    49   25   58 1
    50   26   27 1
    51   26   59 1
    52   26   60 1
    53   27   28 1
    54   27   61 1
    55   27   62 1
    56   28   35 1
    57   28   29 1
    58   28   63 1
    59   29   30 1
    60   29   64 1
    61   29   65 1
    62   30   31 1
    63   30   32 1
    64   30   36 1
    65   32   33 1
    66   32   66 1
    67   32   67 1
    68   33   34 2
    69   33   35 1
    70   36   68 1
    71   37   69 1
    72   37   70 1
    73   37   71 1
@<TRIPOS>MOLECULE
CHEMBL84252__1
   71    73     0     0     0
SMALL
USER_CHARGES

@<TRIPOS>ATOM
      1 C1          0.7602    1.9742    0.1360 C.3       1 <0>        -0.1567
      2 C2          0.5725    0.4631   -0.0130 C.3       1 <0>        -0.1052
      3 C3          1.3546   -0.0303   -1.2319 C.3       1 <0>        -0.0507
      4 C4          0.8384    0.6741   -2.4883 C.3       1 <0>        -0.1467
      5 C5          2.8405    0.2831   -1.0456 C.3       1 <0>        -0.1517
      6 C6          1.1696   -1.5187   -1.3787 C.2       1 <0>         0.4688
      7 O1          0.4828   -2.1228   -0.5893 O.2       1 <0>        -0.5012
      8 O2          1.7680   -2.1732   -2.3863 O.3       1 <0>        -0.3308
      9 C7          1.5492   -3.5821   -2.4646 C.3       1 <0>         0.0883
     10 H1          1.3908   -3.9798   -1.4621 H         1 <0>         0.0972
     11 C8          0.2505   -3.7986   -3.2619 C.3       1 <0>        -0.1324
     12 C9         -0.1175   -5.2839   -3.2369 C.3       1 <0>        -0.1367
     13 H2         -0.3372   -5.5933   -2.2163 H         1 <0>         0.1073
     14 C10         1.0620   -6.0706   -3.7665 C.2       1 <0>         0.3657
     15 O3          0.9162   -6.8789   -4.6533 O.2       1 <0>        -0.4419
     16 C11         2.4199   -5.8162   -3.1572 C.3       1 <0>        -0.1271
     17 H3          3.1944   -6.3236   -3.7326 H         1 <0>         0.1073
     18 C12         2.6945   -4.3019   -3.1531 C.3       1 <0>        -0.0584
     19 C13         4.0700   -4.0706   -2.5611 C.3       1 <0>        -0.0695
     20 H4          4.7915   -4.5930   -3.2359 H         1 <0>         0.0698
     21 C14         4.2690   -4.6701   -1.1804 C.3       1 <0>        -0.0862
     22 H5          5.3618   -4.6619   -0.9744 H         1 <0>         0.0704
     23 C15         3.8153   -6.1219   -1.1065 C.3       1 <0>        -0.1108
     24 C16         2.4286   -6.3155   -1.7113 C.3       1 <0>        -0.1127
     25 C17         3.6100   -3.8304   -0.0910 C.3       1 <0>        -0.1563
     26 C18         4.4765   -2.6001   -2.5738 C.3       1 <0>        -0.1174
     27 C19         5.9177   -2.4651   -2.0782 C.3       1 <0>        -0.1178
     28 C20         6.3254   -0.9905   -2.0910 C.3       1 <0>         0.1092
     29 C21         7.7228   -0.8412   -1.4835 C.3       1 <0>        -0.1566
     30 C22         8.1446    0.6307   -1.5358 C.3       1 <0>         0.1090
     31 H6          7.4390    1.2333   -0.9638 H         1 <0>         0.0669
     32 C23         8.1486    1.0938   -2.9982 C.3       1 <0>        -0.2058
     33 C24         6.8104    0.7430   -3.6110 C.2       1 <0>         0.4913
     34 O4          6.1788    1.5622   -4.2354 O.2       1 <0>        -0.4472
     35 O5          6.3427   -0.5109   -3.4401 O.3       1 <0>        -0.3619
     36 O6          9.4544    0.7732   -0.9824 O.3       1 <0>        -0.5556
     37 C25        -1.3383   -5.5284   -4.1252 C.3       1 <0>        -0.1401
     38 H7          1.8188    2.1975    0.2688 H         1 <0>         0.0594
     39 H8          0.3926    2.4760   -0.7590 H         1 <0>         0.0606
     40 H9          0.2031    2.3257    1.0045 H         1 <0>         0.0602
     41 H10         0.9402   -0.0387    0.8821 H         1 <0>         0.0713
     42 H11        -0.4861    0.2398   -0.1457 H         1 <0>         0.0715
     43 H12         0.9722    1.7506   -2.3821 H         1 <0>         0.0764
     44 H13         1.3956    0.3226   -3.3567 H         1 <0>         0.0715
     45 H14        -0.2202    0.4508   -2.6210 H         1 <0>         0.0607
     46 H15         3.2082   -0.2187   -0.1505 H         1 <0>         0.0608
     47 H16         3.3976   -0.0684   -1.9140 H         1 <0>         0.0729
     48 H17         2.9742    1.3597   -0.9394 H         1 <0>         0.0765
     49 H18        -0.5472   -3.2139   -2.8076 H         1 <0>         0.0820
     50 H19         0.4069   -3.4759   -4.2897 H         1 <0>         0.0788
     51 H20         2.7166   -3.9768   -4.2074 H         1 <0>         0.0827
     52 H21         4.5314   -6.7530   -1.6435 H         1 <0>         0.0654
     53 H22         3.7979   -6.4436   -0.0600 H         1 <0>         0.0697
     54 H23         1.6858   -5.7774   -1.1266 H         1 <0>         0.0723
     55 H24         2.1780   -7.3805   -1.7014 H         1 <0>         0.0690
     56 H25         2.5275   -3.8580   -0.2159 H         1 <0>         0.0574
     57 H26         3.8732   -4.2329    0.8872 H         1 <0>         0.0561
     58 H27         3.9582   -2.8002   -0.1657 H         1 <0>         0.0572
     59 H28         4.4038   -2.2118   -3.5897 H         1 <0>         0.0760
     60 H29         3.8130   -2.0340   -1.9202 H         1 <0>         0.0798
     61 H30         5.9904   -2.8534   -1.0623 H         1 <0>         0.0909
     62 H31         6.5813   -3.0312   -2.7319 H         1 <0>         0.0791
     63 H32         5.6105   -0.4102   -1.5076 H         1 <0>         0.0788
     64 H33         7.7067   -1.1783   -0.4471 H         1 <0>         0.0980
     65 H34         8.4323   -1.4432   -2.0512 H         1 <0>         0.0913
     66 H35         8.3012    2.1722   -3.0417 H         1 <0>         0.1069
     67 H36         8.9459    0.5871   -3.5419 H         1 <0>         0.1175
     68 H37         9.7852    1.6819   -0.9837 H         1 <0>         0.3856
     69 H38        -1.1088   -5.2305   -5.1483 H         1 <0>         0.0609
     70 H39        -1.5967   -6.5871   -4.1043 H         1 <0>         0.0651
     71 H40        -2.1796   -4.9417   -3.7561 H         1 <0>         0.0642
@<TRIPOS>BOND
     1    1    2 1
     2    1   38 1
     3    1   39 1
     4    1   40 1
     5    2    3 1
     6    2   41 1
     7    2   42 1
     8    3    4 1
     9    3    5 1
    10    3    6 1
    11    4   43 1
    12    4   44 1
    13    4   45 1
    14    5   46 1
    15    5   47 1
    16    5   48 1
    17    6    7 2
    18    6    8 1
    19    8    9 1
    20    9   10 1
    21    9   18 1
    22    9   11 1
    23   11   12 1
    24   11   49 1
    25   11   50 1
    26   12   13 1
    27   12   14 1
    28   12   37 1
    29   14   15 2
    30   14   16 1
    31   16   17 1
    32   16   24 1
    33   16   18 1
    34   18   19 1
    35   18   51 1
    36   19   20 1
    37   19   21 1
    38   19   26 1
    39   21   22 1
    40   21   23 1
    41   21   25 1
    42   23   24 1
    43   23   52 1
    44   23   53 1
    45   24   54 1
    46   24   55 1
    47   25   56 1
    48   25   57 1
    49   25   58 1
    50   26   27 1
    51   26   59 1
    52   26   60 1
    53   27   28 1
    54   27   61 1
    55   27   62 1
    56   28   35 1
    57   28   29 1
    58   28   63 1
    59   29   30 1
    60   29   64 1
    61   29   65 1
    62   30   31 1
    63   30   32 1
    64   30   36 1
    65   32   33 1
    66   32   66 1
    67   32   67 1
    68   33   34 2
    69   33   35 1
    70   36   68 1
    71   37   69 1
    72   37   70 1
    73   37   71 1
@<TRIPOS>MOLECULE
CHEMBL84252__2
   71    73     0     0     0
SMALL
USER_CHARGES

@<TRIPOS>ATOM
      1 C1         -1.2798    1.3827    0.0086 C.3       1 <0>        -0.1563
      2 C2         -1.2495   -0.1461   -0.0425 C.3       1 <0>        -0.1058
      3 C3         -0.2048   -0.6017   -1.0632 C.3       1 <0>        -0.0522
      4 C4         -0.5678   -0.0525   -2.4443 C.3       1 <0>        -0.1510
      5 C5          1.1726   -0.0778   -0.6519 C.3       1 <0>        -0.1446
      6 C6         -0.1749   -2.1076   -1.1135 C.2       1 <0>         0.4663
      7 O1         -0.9134   -2.7505   -0.4055 O.2       1 <0>        -0.5010
      8 O2          0.6721   -2.7347   -1.9448 O.3       1 <0>        -0.3308
      9 C7          0.6467   -4.1635   -1.9403 C.3       1 <0>         0.0859
     10 H1          0.3599   -4.5187   -0.9505 H         1 <0>         0.0976
     11 C8         -0.3677   -4.6591   -2.9742 C.3       1 <0>        -0.1309
     12 C9         -0.0121   -4.1057   -4.3572 C.3       1 <0>        -0.1351
     13 H2         -0.6668   -4.5491   -5.1074 H         1 <0>         0.0935
     14 C10         1.4278   -4.4562   -4.6695 C.2       1 <0>         0.3698
     15 O3          1.7284   -4.9914   -5.7094 O.2       1 <0>        -0.4476
     16 C11         2.4752   -4.1133   -3.6367 C.3       1 <0>        -0.1266
     17 H3          2.5642   -3.0302   -3.5526 H         1 <0>         0.1125
     18 C12         2.0331   -4.6982   -2.2909 C.3       1 <0>        -0.0682
     19 C13         3.0516   -4.3106   -1.2199 C.3       1 <0>        -0.0727
     20 H4          3.1230   -3.2246   -1.1606 H         1 <0>         0.0802
     21 C14         4.4168   -4.8944   -1.5954 C.3       1 <0>        -0.0854
     22 H5          5.1501   -4.6164   -0.8384 H         1 <0>         0.0755
     23 C15         4.8589   -4.3508   -2.9545 C.3       1 <0>        -0.1139
     24 C16         3.8267   -4.7091   -4.0279 C.3       1 <0>        -0.1087
     25 C17         4.3149   -6.4192   -1.6686 C.3       1 <0>        -0.1579
     26 C18         2.6086   -4.8692    0.1338 C.3       1 <0>        -0.1246
     27 C19         3.5610   -4.3766    1.2252 C.3       1 <0>        -0.1133
     28 C20         3.1180   -4.9351    2.5789 C.3       1 <0>         0.1093
     29 C21         3.9968   -4.3479    3.6865 C.3       1 <0>        -0.1533
     30 C22         3.5776   -4.9409    5.0355 C.3       1 <0>         0.1038
     31 H6          4.2097   -4.5347    5.8252 H         1 <0>         0.0794
     32 C23         3.7408   -6.4651    4.9795 C.3       1 <0>        -0.2049
     33 C24         3.0170   -6.9754    3.7527 C.2       1 <0>         0.4957
     34 O4          2.2508   -7.9068    3.8256 O.2       1 <0>        -0.4528
     35 O5          3.2521   -6.3608    2.5749 O.3       1 <0>        -0.3667
     36 O6          2.2120   -4.6126    5.2990 O.3       1 <0>        -0.5634
     37 C25        -0.1845   -2.5854   -4.3607 C.3       1 <0>        -0.1512
     38 H7         -0.2985    1.7560    0.3016 H         1 <0>         0.0600
     39 H8         -1.5384    1.7740   -0.9753 H         1 <0>         0.0600
     40 H9         -2.0240    1.7073    0.7358 H         1 <0>         0.0597
     41 H10        -0.9908   -0.5374    0.9415 H         1 <0>         0.0711
     42 H11        -2.2307   -0.5194   -0.3355 H         1 <0>         0.0708
     43 H12        -0.5894    1.0367   -2.4080 H         1 <0>         0.0761
     44 H13         0.1764   -0.3771   -3.1715 H         1 <0>         0.0731
     45 H14        -1.5491   -0.4258   -2.7374 H         1 <0>         0.0615
     46 H15         1.4312   -0.4691    0.3320 H         1 <0>         0.0606
     47 H16         1.9168   -0.4024   -1.3791 H         1 <0>         0.0695
     48 H17         1.1510    1.0114   -0.6156 H         1 <0>         0.0757
     49 H18        -0.3511   -5.7486   -3.0048 H         1 <0>         0.0845
     50 H19        -1.3653   -4.3207   -2.6941 H         1 <0>         0.0824
     51 H20         1.9929   -5.7849   -2.3652 H         1 <0>         0.0966
     52 H21         4.9525   -3.2663   -2.8977 H         1 <0>         0.0629
     53 H22         5.8234   -4.7828   -3.2210 H         1 <0>         0.0661
     54 H23         3.7411   -5.7936   -4.0966 H         1 <0>         0.0692
     55 H24         4.1386   -4.3047   -4.9909 H         1 <0>         0.0702
     56 H25         3.5797   -6.6984   -2.4233 H         1 <0>         0.0574
     57 H26         5.2861   -6.8358   -1.9358 H         1 <0>         0.0542
     58 H27         4.0064   -6.8097   -0.6988 H         1 <0>         0.0626
     59 H28         1.5967   -4.5288    0.3538 H         1 <0>         0.0638
     60 H29         2.6263   -5.9586    0.1008 H         1 <0>         0.0797
     61 H30         4.5728   -4.7170    1.0052 H         1 <0>         0.0805
     62 H31         3.5433   -3.2872    1.2582 H         1 <0>         0.0851
     63 H32         2.0768   -4.6681    2.7597 H         1 <0>         0.0841
     64 H33         5.0408   -4.5924    3.4905 H         1 <0>         0.0958
     65 H34         3.8751   -3.2650    3.7117 H         1 <0>         0.0973
     66 H35         4.7988   -6.7192    4.9141 H         1 <0>         0.1182
     67 H36         3.3092   -6.9140    5.8740 H         1 <0>         0.1075
     68 H37         1.8797   -4.9573    6.1392 H         1 <0>         0.3865
     69 H38         0.6082   -2.1285   -3.7683 H         1 <0>         0.0889
     70 H39        -0.1316   -2.2161   -5.3848 H         1 <0>         0.0559
     71 H40        -1.1530   -2.3286   -3.9314 H         1 <0>         0.0620
@<TRIPOS>BOND
     1    1    2 1
     2    1   38 1
     3    1   39 1
     4    1   40 1
     5    2    3 1
     6    2   41 1
     7    2   42 1
     8    3    4 1
     9    3    5 1
    10    3    6 1
    11    4   43 1
    12    4   44 1
    13    4   45 1
    14    5   46 1
    15    5   47 1
    16    5   48 1
    17    6    7 2
    18    6    8 1
    19    8    9 1
    20    9   10 1
    21    9   18 1
    22    9   11 1
    23   11   12 1
    24   11   49 1
    25   11   50 1
    26   12   13 1
    27   12   14 1
    28   12   37 1
    29   14   15 2
    30   14   16 1
    31   16   17 1
    32   16   24 1
    33   16   18 1
    34   18   19 1
    35   18   51 1
    36   19   20 1
    37   19   21 1
    38   19   26 1
    39   21   22 1
    40   21   23 1
    41   21   25 1
    42   23   24 1
    43   23   52 1
    44   23   53 1
    45   24   54 1
    46   24   55 1
    47   25   56 1
    48   25   57 1
    49   25   58 1
    50   26   27 1
    51   26   59 1
    52   26   60 1
    53   27   28 1
    54   27   61 1
    55   27   62 1
    56   28   35 1
    57   28   29 1
    58   28   63 1
    59   29   30 1
    60   29   64 1
    61   29   65 1
    62   30   31 1
    63   30   32 1
    64   30   36 1
    65   32   33 1
    66   32   66 1
    67   32   67 1
    68   33   34 2
    69   33   35 1
    70   36   68 1
    71   37   69 1
    72   37   70 1
    73   37   71 1
@<TRIPOS>MOLECULE
CHEMBL84252__3
   71    73     0     0     0
SMALL
USER_CHARGES

@<TRIPOS>ATOM
      1 C1         -1.2798    1.3827    0.0086 C.3       1 <0>        -0.1560
      2 C2         -1.2495   -0.1461   -0.0425 C.3       1 <0>        -0.1060
      3 C3         -0.2048   -0.6017   -1.0632 C.3       1 <0>        -0.0516
      4 C4         -0.5678   -0.0525   -2.4443 C.3       1 <0>        -0.1506
      5 C5          1.1726   -0.0778   -0.6519 C.3       1 <0>        -0.1443
      6 C6         -0.1749   -2.1076   -1.1135 C.2       1 <0>         0.4659
      7 O1         -0.9134   -2.7505   -0.4055 O.2       1 <0>        -0.4973
      8 O2          0.6721   -2.7347   -1.9448 O.3       1 <0>        -0.3316
      9 C7          0.6467   -4.1635   -1.9403 C.3       1 <0>         0.0854
     10 H1          0.3599   -4.5187   -0.9505 H         1 <0>         0.0985
     11 C8         -0.3677   -4.6591   -2.9742 C.3       1 <0>        -0.1307
     12 C9         -0.0121   -4.1057   -4.3572 C.3       1 <0>        -0.1350
     13 H2         -0.6668   -4.5491   -5.1074 H         1 <0>         0.0933
     14 C10         1.4278   -4.4562   -4.6695 C.2       1 <0>         0.3700
     15 O3          1.7284   -4.9914   -5.7094 O.2       1 <0>        -0.4480
     16 C11         2.4752   -4.1133   -3.6367 C.3       1 <0>        -0.1271
     17 H3          2.5642   -3.0302   -3.5526 H         1 <0>         0.1128
     18 C12         2.0331   -4.6982   -2.2909 C.3       1 <0>        -0.0675
     19 C13         3.0516   -4.3106   -1.2199 C.3       1 <0>        -0.0734
     20 H4          3.1230   -3.2246   -1.1606 H         1 <0>         0.0819
     21 C14         4.4168   -4.8944   -1.5954 C.3       1 <0>        -0.0871
     22 H5          5.1501   -4.6164   -0.8384 H         1 <0>         0.0760
     23 C15         4.8589   -4.3508   -2.9545 C.3       1 <0>        -0.1140
     24 C16         3.8267   -4.7091   -4.0279 C.3       1 <0>        -0.1086
     25 C17         4.3149   -6.4192   -1.6686 C.3       1 <0>        -0.1572
     26 C18         2.6086   -4.8692    0.1338 C.3       1 <0>        -0.1254
     27 C19         3.5610   -4.3766    1.2252 C.3       1 <0>        -0.1115
     28 C20         3.1180   -4.9351    2.5789 C.3       1 <0>         0.1081
     29 C21         4.1366   -4.5420    3.6522 C.3       1 <0>        -0.1551
     30 C22         3.6687   -5.0675    5.0131 C.3       1 <0>         0.1087
     31 H6          3.5877   -6.1538    4.9768 H         1 <0>         0.0670
     32 C23         2.2971   -4.4602    5.3343 C.3       1 <0>        -0.2046
     33 C24         1.3817   -4.7044    4.1546 C.2       1 <0>         0.4908
     34 O4          0.2749   -5.1630    4.3112 O.2       1 <0>        -0.4465
     35 O5          1.8370   -4.3955    2.9227 O.3       1 <0>        -0.3628
     36 O6          4.6095   -4.6910    6.0207 O.3       1 <0>        -0.5557
     37 C25        -0.1845   -2.5854   -4.3607 C.3       1 <0>        -0.1514
     38 H7         -0.2985    1.7560    0.3016 H         1 <0>         0.0598
     39 H8         -1.5384    1.7740   -0.9753 H         1 <0>         0.0599
     40 H9         -2.0240    1.7073    0.7358 H         1 <0>         0.0594
     41 H10        -0.9908   -0.5374    0.9415 H         1 <0>         0.0712
     42 H11        -2.2307   -0.5194   -0.3355 H         1 <0>         0.0706
     43 H12        -0.5894    1.0367   -2.4080 H         1 <0>         0.0758
     44 H13         0.1764   -0.3771   -3.1715 H         1 <0>         0.0728
     45 H14        -1.5491   -0.4258   -2.7374 H         1 <0>         0.0613
     46 H15         1.4312   -0.4691    0.3320 H         1 <0>         0.0610
     47 H16         1.9168   -0.4024   -1.3791 H         1 <0>         0.0690
     48 H17         1.1510    1.0114   -0.6156 H         1 <0>         0.0752
     49 H18        -0.3511   -5.7486   -3.0048 H         1 <0>         0.0838
     50 H19        -1.3653   -4.3207   -2.6941 H         1 <0>         0.0825
     51 H20         1.9929   -5.7849   -2.3652 H         1 <0>         0.0957
     52 H21         4.9525   -3.2663   -2.8977 H         1 <0>         0.0636
     53 H22         5.8234   -4.7828   -3.2210 H         1 <0>         0.0665
     54 H23         3.7411   -5.7936   -4.0966 H         1 <0>         0.0690
     55 H24         4.1386   -4.3047   -4.9909 H         1 <0>         0.0705
     56 H25         3.5797   -6.6984   -2.4233 H         1 <0>         0.0589
     57 H26         5.2861   -6.8358   -1.9358 H         1 <0>         0.0556
     58 H27         4.0064   -6.8097   -0.6988 H         1 <0>         0.0580
     59 H28         1.5967   -4.5288    0.3538 H         1 <0>         0.0745
     60 H29         2.6263   -5.9586    0.1008 H         1 <0>         0.0706
     61 H30         4.5728   -4.7170    1.0052 H         1 <0>         0.0915
     62 H31         3.5433   -3.2872    1.2582 H         1 <0>         0.0787
     63 H32         3.0514   -6.0215    2.5202 H         1 <0>         0.0788
     64 H33         5.1067   -4.9754    3.4090 H         1 <0>         0.0984
     65 H34         4.2226   -3.4561    3.6916 H         1 <0>         0.0910
     66 H35         1.8843   -4.9353    6.2242 H         1 <0>         0.1069
     67 H36         2.4003   -3.3884    5.5036 H         1 <0>         0.1173
     68 H37         4.3753   -4.9917    6.9095 H         1 <0>         0.3857
     69 H38         0.6082   -2.1285   -3.7683 H         1 <0>         0.0891
     70 H39        -0.1316   -2.2161   -5.3848 H         1 <0>         0.0558
     71 H40        -1.1530   -2.3286   -3.9314 H         1 <0>         0.0622
@<TRIPOS>BOND
     1    1    2 1
     2    1   38 1
     3    1   39 1
     4    1   40 1
     5    2    3 1
     6    2   41 1
     7    2   42 1
     8    3    4 1
     9    3    5 1
    10    3    6 1
    11    4   43 1
    12    4   44 1
    13    4   45 1
    14    5   46 1
    15    5   47 1
    16    5   48 1
    17    6    7 2
    18    6    8 1
    19    8    9 1
    20    9   10 1
    21    9   18 1
    22    9   11 1
    23   11   12 1
    24   11   49 1
    25   11   50 1
    26   12   13 1
    27   12   14 1
    28   12   37 1
    29   14   15 2
    30   14   16 1
    31   16   17 1
    32   16   24 1
    33   16   18 1
    34   18   19 1
    35   18   51 1
    36   19   20 1
    37   19   21 1
    38   19   26 1
    39   21   22 1
    40   21   23 1
    41   21   25 1
    42   23   24 1
    43   23   52 1
    44   23   53 1
    45   24   54 1
    46   24   55 1
    47   25   56 1
    48   25   57 1
    49   25   58 1
    50   26   27 1
    51   26   59 1
    52   26   60 1
    53   27   28 1
    54   27   61 1
    55   27   62 1
    56   28   35 1
    57   28   29 1
    58   28   63 1
    59   29   30 1
    60   29   64 1
    61   29   65 1
    62   30   31 1
    63   30   32 1
    64   30   36 1
    65   32   33 1
    66   32   66 1
    67   32   67 1
    68   33   34 2
    69   33   35 1
    70   36   68 1
    71   37   69 1
    72   37   70 1
    73   37   71 1
@<TRIPOS>MOLECULE
CHEMBL350895
   57    60     0     0     0
SMALL
USER_CHARGES

@<TRIPOS>ATOM
      1 C1          0.5033    1.5316   -0.0326 C.3       1 <0>        -0.1438
      2 C2          0.2234    0.0288   -0.0967 C.3       1 <0>        -0.0804
      3 C3          0.6843   -0.5118   -1.4257 C.ar      1 <0>         0.1502
      4 C4         -0.2129   -0.6012   -2.4711 C.ar      1 <0>        -0.1198
      5 C5          0.2208   -1.1037   -3.7021 C.ar      1 <0>         0.0045
      6 C6          1.5546   -1.4972   -3.8228 C.ar      1 <0>        -0.1538
      7 C7          2.3945   -1.3748   -2.7211 C.ar      1 <0>         0.1740
      8 N1          1.9390   -0.8869   -1.5737 N.ar      1 <0>        -0.4717
      9 C8          3.8150   -1.7884   -2.8309 C.ar      1 <0>        -0.0514
     10 C9          4.3058   -2.2917   -4.0341 C.ar      1 <0>        -0.1013
     11 C10         5.6281   -2.6750   -4.1306 C.ar      1 <0>        -0.1232
     12 C11         6.4657   -2.5609   -3.0356 C.ar      1 <0>        -0.1080
     13 C12         5.9837   -2.0624   -1.8387 C.ar      1 <0>        -0.1254
     14 C13         4.6648   -1.6698   -1.7328 C.ar      1 <0>        -0.0787
     15 C14        -0.7127   -1.2161   -4.8496 C.ar      1 <0>        -0.0607
     16 C15        -1.8899   -1.9513   -4.7235 C.ar      1 <0>        -0.0720
     17 C16        -2.7551   -2.0532   -5.7932 C.ar      1 <0>        -0.1499
     18 C17        -2.4548   -1.4264   -6.9919 C.ar      1 <0>         0.1069
     19 C18        -1.2855   -0.6944   -7.1217 C.ar      1 <0>        -0.1507
     20 C19        -0.4176   -0.5821   -6.0552 C.ar      1 <0>        -0.0732
     21 F1         -3.3045   -1.5295   -8.0372 F         1 <0>        -0.1364
     22 C20        -1.6431   -0.1629   -2.2878 C.3       1 <0>        -0.0878
     23 C21        -1.7972    1.2846   -2.7587 C.3       1 <0>        -0.1102
     24 C22        -3.2420    1.7399   -2.5433 C.3       1 <0>         0.1116
     25 C23        -3.4270    3.1447   -3.1231 C.3       1 <0>        -0.1537
     26 C24        -4.8631    3.6138   -2.8688 C.3       1 <0>         0.1044
     27 H1         -4.9951    4.6191   -3.2690 H         1 <0>         0.0797
     28 C25        -5.1210    3.6248   -1.3567 C.3       1 <0>        -0.2051
     29 C26        -4.7336    2.2725   -0.7993 C.2       1 <0>         0.4965
     30 O1         -5.4797    1.6646   -0.0687 O.2       1 <0>        -0.4521
     31 O2         -3.5311    1.7653   -1.1411 O.3       1 <0>        -0.3665
     32 O3         -5.7784    2.7207   -3.5065 O.3       1 <0>        -0.5633
     33 H2          1.5801    1.7010   -0.0342 H         1 <0>         0.0580
     34 H3          0.0571    2.0215   -0.8980 H         1 <0>         0.0564
     35 H4          0.0722    1.9429    0.8802 H         1 <0>         0.0634
     36 H5          0.7605   -0.4754    0.7067 H         1 <0>         0.0828
     37 H6         -0.8465   -0.1466    0.0156 H         1 <0>         0.0879
     38 H7          1.9283   -1.8906   -4.7566 H         1 <0>         0.1384
     39 H8          3.6526   -2.3819   -4.8894 H         1 <0>         0.1253
     40 H9          6.0096   -3.0652   -5.0626 H         1 <0>         0.1263
     41 H10         7.4996   -2.8624   -3.1154 H         1 <0>         0.1243
     42 H11         6.6418   -1.9761   -0.9868 H         1 <0>         0.1260
     43 H12         4.2908   -1.2759   -0.7993 H         1 <0>         0.1349
     44 H13        -2.1244   -2.4408   -3.7898 H         1 <0>         0.1369
     45 H14        -3.6676   -2.6228   -5.6963 H         1 <0>         0.1402
     46 H15        -1.0553   -0.2074   -8.0578 H         1 <0>         0.1397
     47 H16         0.4914   -0.0076   -6.1558 H         1 <0>         0.1352
     48 H17        -2.2985   -0.8074   -2.8736 H         1 <0>         0.0814
     49 H18        -1.9122   -0.2327   -1.2338 H         1 <0>         0.0921
     50 H19        -1.1253    1.9258   -2.1883 H         1 <0>         0.0825
     51 H20        -1.5498    1.3503   -3.8182 H         1 <0>         0.0868
     52 H21        -3.9200    1.0475   -3.0422 H         1 <0>         0.0863
     53 H22        -2.7298    3.8312   -2.6427 H         1 <0>         0.0963
     54 H23        -3.2359    3.1234   -4.1960 H         1 <0>         0.0976
     55 H24        -4.5185    4.4022   -0.8868 H         1 <0>         0.1186
     56 H25        -6.1776    3.8121   -1.1655 H         1 <0>         0.1079
     57 H26        -6.7081    2.9583   -3.3863 H         1 <0>         0.3866
@<TRIPOS>BOND
     1    1    2 1
     2    1   33 1
     3    1   34 1
     4    1   35 1
     5    2    3 1
     6    2   36 1
     7    2   37 1
     8    3    8 ar
     9    3    4 ar
    10    4    5 ar
    11    4   22 1
    12    5    6 ar
    13    5   15 1
    14    6    7 ar
    15    6   38 1
    16    7    8 ar
    17    7    9 1
    18    9   14 ar
    19    9   10 ar
    20   10   11 ar
    21   10   39 1
    22   11   12 ar
    23   11   40 1
    24   12   13 ar
    25   12   41 1
    26   13   14 ar
    27   13   42 1
    28   14   43 1
    29   15   20 ar
    30   15   16 ar
    31   16   17 ar
    32   16   44 1
    33   17   18 ar
    34   17   45 1
    35   18   19 ar
    36   18   21 1
    37   19   20 ar
    38   19   46 1
    39   20   47 1
    40   22   23 1
    41   22   48 1
    42   22   49 1
    43   23   24 1
    44   23   50 1
    45   23   51 1
    46   24   31 1
    47   24   25 1
    48   24   52 1
    49   25   26 1
    50   25   53 1
    51   25   54 1
    52   26   27 1
    53   26   28 1
    54   26   32 1
    55   28   29 1
    56   28   55 1
    57   28   56 1
    58   29   30 2
    59   29   31 1
    60   32   57 1
@<TRIPOS>MOLECULE
CHEMBL350895__1
   57    60     0     0     0
SMALL
USER_CHARGES

@<TRIPOS>ATOM
      1 C1          0.4694    1.5229    0.0068 C.3       1 <0>        -0.1472
      2 C2          0.1938    0.0198   -0.0686 C.3       1 <0>        -0.0800
      3 C3          0.6733   -0.5130   -1.3942 C.ar      1 <0>         0.1471
      4 C4         -0.2100   -0.5992   -2.4516 C.ar      1 <0>        -0.1214
      5 C5          0.2410   -1.0944   -3.6794 C.ar      1 <0>         0.0086
      6 C6          1.5772   -1.4842   -3.7847 C.ar      1 <0>        -0.1534
      7 C7          2.4023   -1.3654   -2.6714 C.ar      1 <0>         0.1751
      8 N1          1.9308   -0.8844   -1.5277 N.ar      1 <0>        -0.4721
      9 C8          3.8251   -1.7752   -2.7648 C.ar      1 <0>        -0.0519
     10 C9          4.3328   -2.2713   -3.9640 C.ar      1 <0>        -0.1010
     11 C10         5.6572   -2.6510   -4.0451 C.ar      1 <0>        -0.1231
     12 C11         6.4801   -2.5405   -2.9388 C.ar      1 <0>        -0.1077
     13 C12         5.9814   -2.0492   -1.7458 C.ar      1 <0>        -0.1256
     14 C13         4.6603   -1.6602   -1.6551 C.ar      1 <0>        -0.0787
     15 C14        -0.6772   -1.2032   -4.8395 C.ar      1 <0>        -0.0629
     16 C15        -1.8550   -1.9405   -4.7320 C.ar      1 <0>        -0.0657
     17 C16        -2.7059   -2.0390   -5.8134 C.ar      1 <0>        -0.1460
     18 C17        -2.3908   -1.4067   -7.0054 C.ar      1 <0>         0.1071
     19 C18        -1.2208   -0.6727   -7.1168 C.ar      1 <0>        -0.1515
     20 C19        -0.3672   -0.5637   -6.0384 C.ar      1 <0>        -0.0731
     21 F1         -3.2264   -1.5065   -8.0622 F         1 <0>        -0.1372
     22 C20        -1.6434   -0.1652   -2.2848 C.3       1 <0>        -0.0885
     23 C21        -1.7946    1.2848   -2.7491 C.3       1 <0>        -0.1091
     24 C22        -3.2387    1.7416   -2.5330 C.3       1 <0>         0.1102
     25 C23        -3.3632    3.2264   -2.8846 C.3       1 <0>        -0.1558
     26 C24        -4.8188    3.6701   -2.7068 C.3       1 <0>         0.1094
     27 H1         -5.1221    3.5206   -1.6706 H         1 <0>         0.0678
     28 C25        -5.7100    2.8289   -3.6295 C.3       1 <0>        -0.2055
     29 C26        -5.4044    1.3678   -3.3819 C.2       1 <0>         0.4920
     30 O1         -6.2925    0.5701   -3.1951 O.2       1 <0>        -0.4475
     31 O2         -4.1118    0.9813   -3.3757 O.3       1 <0>        -0.3620
     32 O3         -4.9430    5.0524   -3.0473 O.3       1 <0>        -0.5554
     33 H2          1.5457    1.6951    0.0134 H         1 <0>         0.0607
     34 H3          0.0277    2.0171   -0.8586 H         1 <0>         0.0560
     35 H4          0.0311    1.9274    0.9191 H         1 <0>         0.0641
     36 H5          0.7216   -0.4873    0.7392 H         1 <0>         0.0842
     37 H6         -0.8770   -0.1586    0.0288 H         1 <0>         0.0847
     38 H7          1.9640   -1.8721   -4.7155 H         1 <0>         0.1388
     39 H8          3.6910   -2.3587   -4.8282 H         1 <0>         0.1255
     40 H9          6.0517   -3.0356   -4.9740 H         1 <0>         0.1264
     41 H10         7.5157   -2.8392   -3.0066 H         1 <0>         0.1243
     42 H11         6.6281   -1.9657   -0.8849 H         1 <0>         0.1260
     43 H12         4.2732   -1.2719   -0.7247 H         1 <0>         0.1347
     44 H13        -2.1011   -2.4342   -3.8035 H         1 <0>         0.1354
     45 H14        -3.6188   -2.6101   -5.7309 H         1 <0>         0.1390
     46 H15        -0.9790   -0.1814   -8.0477 H         1 <0>         0.1387
     47 H16         0.5423    0.0123   -6.1247 H         1 <0>         0.1341
     48 H17        -2.2895   -0.8075   -2.8832 H         1 <0>         0.0914
     49 H18        -1.9264   -0.2419   -1.2350 H         1 <0>         0.0834
     50 H19        -1.1221    1.9222   -2.1749 H         1 <0>         0.0932
     51 H20        -1.5459    1.3550   -3.8080 H         1 <0>         0.0811
     52 H21        -3.5163    1.5895   -1.4899 H         1 <0>         0.0820
     53 H22        -2.7217    3.8113   -2.2255 H         1 <0>         0.0991
     54 H23        -3.0596    3.3817   -3.9199 H         1 <0>         0.0912
     55 H24        -6.7587    3.0275   -3.4086 H         1 <0>         0.1073
     56 H25        -5.4996    3.0771   -4.6698 H         1 <0>         0.1174
     57 H26        -5.8406    5.4005   -2.9573 H         1 <0>         0.3859
@<TRIPOS>BOND
     1    1    2 1
     2    1   33 1
     3    1   34 1
     4    1   35 1
     5    2    3 1
     6    2   36 1
     7    2   37 1
     8    3    8 ar
     9    3    4 ar
    10    4    5 ar
    11    4   22 1
    12    5    6 ar
    13    5   15 1
    14    6    7 ar
    15    6   38 1
    16    7    8 ar
    17    7    9 1
    18    9   14 ar
    19    9   10 ar
    20   10   11 ar
    21   10   39 1
    22   11   12 ar
    23   11   40 1
    24   12   13 ar
    25   12   41 1
    26   13   14 ar
    27   13   42 1
    28   14   43 1
    29   15   20 ar
    30   15   16 ar
    31   16   17 ar
    32   16   44 1
    33   17   18 ar
    34   17   45 1
    35   18   19 ar
    36   18   21 1
    37   19   20 ar
    38   19   46 1
    39   20   47 1
    40   22   23 1
    41   22   48 1
    42   22   49 1
    43   23   24 1
    44   23   50 1
    45   23   51 1
    46   24   31 1
    47   24   25 1
    48   24   52 1
    49   25   26 1
    50   25   53 1
    51   25   54 1
    52   26   27 1
    53   26   28 1
    54   26   32 1
    55   28   29 1
    56   28   55 1
    57   28   56 1
    58   29   30 2
    59   29   31 1
    60   32   57 1
@<TRIPOS>MOLECULE
CHEMBL306742
   80    82     0     0     0
SMALL
USER_CHARGES

@<TRIPOS>ATOM
      1 C1         -0.3685    1.5218    0.3625 C.3       1 <0>        -0.1557
      2 C2         -0.3644   -0.0025    0.2315 C.3       1 <0>        -0.0856
      3 C3          0.3860   -0.6142    1.4162 C.3       1 <0>        -0.1169
      4 C4         -0.3771   -0.3212    2.7095 C.3       1 <0>        -0.1179
      5 C5          0.3733   -0.9329    3.8943 C.3       1 <0>        -0.1445
      6 C6         -0.3898   -0.6399    5.1876 C.3       1 <0>         0.1248
      7 C7         -1.7909   -1.2486    5.1021 C.3       1 <0>        -0.1419
      8 C8          0.3606   -1.2516    6.3723 C.3       1 <0>        -0.1801
      9 O1         -0.4949    0.7737    5.3688 O.3       1 <0>        -0.5593
     10 C9          0.3288   -0.3998   -1.0703 C.3       1 <0>        -0.0777
     11 H1          1.3326    0.0067   -1.1211 H         1 <0>         0.0692
     12 C10         0.3483   -1.9434   -1.2245 C.3       1 <0>        -0.1211
     13 C11        -0.2619   -2.2497   -2.6264 C.3       1 <0>        -0.1179
     14 C12        -0.0413   -0.9140   -3.3525 C.3       1 <0>        -0.0730
     15 H2          1.0620   -0.7983   -3.4775 H         1 <0>         0.0631
     16 C13        -0.4991    0.0877   -2.2739 C.3       1 <0>        -0.0499
     17 C14        -0.2136    1.4948   -2.7441 C.3       1 <0>        -0.1065
     18 C15        -0.9746    1.7340   -4.0546 C.3       1 <0>        -0.1153
     19 C16        -0.5624    0.7448   -5.1343 C.3       1 <0>        -0.1130
     20 C17        -0.6761   -0.7171   -4.6913 C.3       1 <0>        -0.0651
     21 C18        -2.1124   -1.2158   -4.7940 C.3       1 <0>        -0.0913
     22 C19        -2.5897   -1.0832   -6.2173 C.2       1 <0>        -0.1562
     23 C20        -3.2734   -2.0532   -6.7720 C.2       1 <0>        -0.1182
     24 C21        -3.1864   -2.3112   -8.2600 C.3       1 <0>        -0.1111
     25 C22        -4.6084   -2.3744   -8.8273 C.3       1 <0>         0.1055
     26 H3         -5.0829   -1.3981   -8.7287 H         1 <0>         0.0538
     27 C23        -5.4184   -3.4158   -8.0534 C.3       1 <0>        -0.1158
     28 C24        -5.5559   -2.9847   -6.5923 C.3       1 <0>        -0.1007
     29 C25        -4.1651   -2.9480   -5.9399 C.3       1 <0>        -0.0253
     30 C26        -3.5772   -4.3598   -5.8940 C.3       1 <0>        -0.1427
     31 C27        -4.2759   -2.3869   -4.5209 C.3       1 <0>        -0.1565
     32 O2         -4.5550   -2.7412  -10.2074 O.3       1 <0>        -0.5701
     33 C28        -1.9725   -0.0527   -1.8960 C.3       1 <0>        -0.1500
     34 H4          0.6442    1.9010    0.2254 H         1 <0>         0.0512
     35 H5         -1.0227    1.9500   -0.3969 H         1 <0>         0.0613
     36 H6         -0.7299    1.8005    1.3524 H         1 <0>         0.0559
     37 H7         -1.3909   -0.3692    0.2231 H         1 <0>         0.0781
     38 H8          0.4661   -1.6925    1.2780 H         1 <0>         0.0612
     39 H9          1.3841   -0.1806    1.4771 H         1 <0>         0.0568
     40 H10        -0.4573    0.7570    2.8478 H         1 <0>         0.0705
     41 H11        -1.3753   -0.7549    2.6486 H         1 <0>         0.0625
     42 H12         0.4534   -2.0111    3.7560 H         1 <0>         0.0689
     43 H13         1.3714   -0.4993    3.9551 H         1 <0>         0.0623
     44 H14        -1.7108   -2.3268    4.9639 H         1 <0>         0.0682
     45 H15        -2.3346   -1.0398    6.0235 H         1 <0>         0.0605
     46 H16        -2.3256   -0.8128    4.2581 H         1 <0>         0.0660
     47 H17         1.3587   -0.8179    6.4332 H         1 <0>         0.0571
     48 H18        -0.1831   -1.0428    7.2937 H         1 <0>         0.0633
     49 H19         0.4407   -2.3298    6.2340 H         1 <0>         0.0650
     50 H20         0.3572    1.2266    5.4314 H         1 <0>         0.3741
     51 H21         1.3719   -2.3111   -1.1790 H         1 <0>         0.0596
     52 H22        -0.2575   -2.4059   -0.4476 H         1 <0>         0.0652
     53 H23         0.3090   -3.0424   -3.1161 H         1 <0>         0.0577
     54 H24        -1.3051   -2.5205   -2.5491 H         1 <0>         0.0710
     55 H25        -0.5420    2.2145   -1.9903 H         1 <0>         0.0681
     56 H26         0.8592    1.6195   -2.9125 H         1 <0>         0.0581
     57 H27        -2.0468    1.6803   -3.8899 H         1 <0>         0.0623
     58 H28        -0.7421    2.7471   -4.4076 H         1 <0>         0.0529
     59 H29        -1.1932    0.8992   -6.0146 H         1 <0>         0.0626
     60 H30         0.4734    0.9482   -5.4224 H         1 <0>         0.0538
     61 H31        -0.0850   -1.3156   -5.4291 H         1 <0>         0.0553
     62 H32        -2.1561   -2.2623   -4.4922 H         1 <0>         0.0833
     63 H33        -2.7509   -0.6220   -4.1399 H         1 <0>         0.0777
     64 H34        -2.3681   -0.1883   -6.7800 H         1 <0>         0.1100
     65 H35        -2.6363   -1.5020   -8.7403 H         1 <0>         0.0675
     66 H36        -2.6786   -3.2590   -8.4382 H         1 <0>         0.0848
     67 H37        -6.4091   -3.5082   -8.4986 H         1 <0>         0.0691
     68 H38        -4.9098   -4.3787   -8.1007 H         1 <0>         0.0727
     69 H39        -6.0080   -1.9939   -6.5466 H         1 <0>         0.0652
     70 H40        -6.1867   -3.6972   -6.0608 H         1 <0>         0.0724
     71 H41        -2.5829   -4.3251   -5.4489 H         1 <0>         0.0551
     72 H42        -4.2216   -5.0024   -5.2939 H         1 <0>         0.0555
     73 H43        -3.5084   -4.7579   -6.9063 H         1 <0>         0.0582
     74 H44        -4.2655   -1.2976   -4.5591 H         1 <0>         0.0678
     75 H45        -5.2076   -2.7256   -4.0679 H         1 <0>         0.0505
     76 H46        -3.4335   -2.7375   -3.9247 H         1 <0>         0.0688
     77 H47        -4.0549   -2.1244  -10.7593 H         1 <0>         0.3777
     78 H48        -2.1903    0.5851   -1.0394 H         1 <0>         0.0626
     79 H49        -2.5941    0.2472   -2.7397 H         1 <0>         0.0573
     80 H50        -2.1845   -1.0907   -1.6394 H         1 <0>         0.0569
@<TRIPOS>BOND
     1    1    2 1
     2    1   34 1
     3    1   35 1
     4    1   36 1
     5    2    3 1
     6    2   10 1
     7    2   37 1
     8    3    4 1
     9    3   38 1
    10    3   39 1
    11    4    5 1
    12    4   40 1
    13    4   41 1
    14    5    6 1
    15    5   42 1
    16    5   43 1
    17    6    7 1
    18    6    8 1
    19    6    9 1
    20    7   44 1
    21    7   45 1
    22    7   46 1
    23    8   47 1
    24    8   48 1
    25    8   49 1
    26    9   50 1
    27   10   11 1
    28   10   16 1
    29   10   12 1
    30   12   13 1
    31   12   51 1
    32   12   52 1
    33   13   14 1
    34   13   53 1
    35   13   54 1
    36   14   15 1
    37   14   20 1
    38   14   16 1
    39   16   17 1
    40   16   33 1
    41   17   18 1
    42   17   55 1
    43   17   56 1
    44   18   19 1
    45   18   57 1
    46   18   58 1
    47   19   20 1
    48   19   59 1
    49   19   60 1
    50   20   21 1
    51   20   61 1
    52   21   22 1
    53   21   62 1
    54   21   63 1
    55   22   23 2
    56   22   64 1
    57   23   29 1
    58   23   24 1
    59   24   25 1
    60   24   65 1
    61   24   66 1
    62   25   26 1
    63   25   27 1
    64   25   32 1
    65   27   28 1
    66   27   67 1
    67   27   68 1
    68   28   29 1
    69   28   69 1
    70   28   70 1
    71   29   30 1
    72   29   31 1
    73   30   71 1
    74   30   72 1
    75   30   73 1
    76   31   74 1
    77   31   75 1
    78   31   76 1
    79   32   77 1
    80   33   78 1
    81   33   79 1
    82   33   80 1
@<TRIPOS>MOLECULE
CHEMBL306742__1
   80    82     0     0     0
SMALL
USER_CHARGES

@<TRIPOS>ATOM
      1 C1         -0.7455    0.1232    0.7321 C.3       1 <0>        -0.1569
      2 C2         -0.6653   -1.3481    0.3199 C.3       1 <0>        -0.0829
      3 C3          0.0970   -2.1359    1.3872 C.3       1 <0>        -0.1169
      4 C4         -0.6979   -2.1245    2.6945 C.3       1 <0>        -0.1173
      5 C5          0.0644   -2.9124    3.7618 C.3       1 <0>        -0.1445
      6 C6         -0.7305   -2.9010    5.0690 C.3       1 <0>         0.1248
      7 C7         -2.0990   -3.5456    4.8395 C.3       1 <0>        -0.1419
      8 C8          0.0318   -3.6888    6.1363 C.3       1 <0>        -0.1801
      9 O1         -0.9069   -1.5524    5.5076 O.3       1 <0>        -0.5593
     10 C9          0.0662   -1.4635   -1.0189 C.3       1 <0>        -0.0723
     11 H1          1.0690   -1.0439   -0.9381 H         1 <0>         0.0686
     12 C10         0.1387   -2.9453   -1.4649 C.3       1 <0>        -0.1199
     13 C11        -0.5407   -3.0165   -2.8598 C.3       1 <0>        -0.1170
     14 C12        -0.3982   -1.5834   -3.3844 C.3       1 <0>        -0.0815
     15 H2          0.6248   -1.3988   -3.7124 H         1 <0>         0.0708
     16 C13        -0.7191   -0.7488   -2.1135 C.3       1 <0>        -0.0549
     17 C14        -0.3265    0.6869   -2.4022 C.3       1 <0>        -0.1068
     18 C15        -1.2380    1.1907   -3.5334 C.3       1 <0>        -0.1210
     19 C16        -1.1210    0.3141   -4.7766 C.3       1 <0>        -0.1087
     20 C17        -1.3816   -1.1751   -4.4660 C.3       1 <0>        -0.0750
     21 C18        -1.1652   -2.0300   -5.7163 C.3       1 <0>        -0.0904
     22 C19        -2.2233   -1.7025   -6.7382 C.2       1 <0>        -0.1524
     23 C20        -1.8900   -1.5261   -7.9927 C.2       1 <0>        -0.1180
     24 C21        -2.6701   -0.5783   -8.8767 C.3       1 <0>        -0.1107
     25 C22        -3.0614   -1.3194  -10.1595 C.3       1 <0>         0.1054
     26 H3         -3.7529   -2.1262   -9.9168 H         1 <0>         0.0538
     27 C23        -1.8069   -1.9019  -10.8126 C.3       1 <0>        -0.1158
     28 C24        -1.1770   -2.9444   -9.8874 C.3       1 <0>        -0.1007
     29 C25        -0.7113   -2.2601   -8.5928 C.3       1 <0>        -0.0256
     30 C26         0.4080   -1.2653   -8.9065 C.3       1 <0>        -0.1424
     31 C27        -0.2057   -3.3141   -7.6057 C.3       1 <0>        -0.1566
     32 O2         -3.6903   -0.4084  -11.0632 O.3       1 <0>        -0.5701
     33 C28        -2.2167   -0.8250   -1.8098 C.3       1 <0>        -0.1525
     34 H4          0.2601    0.5087    0.9001 H         1 <0>         0.0507
     35 H5         -1.2269    0.6967   -0.0600 H         1 <0>         0.0647
     36 H6         -1.3268    0.2122    1.6498 H         1 <0>         0.0542
     37 H7         -1.6725   -1.7527    0.2197 H         1 <0>         0.0743
     38 H8          0.2315   -3.1646    1.0527 H         1 <0>         0.0613
     39 H9          1.0719   -1.6767    1.5508 H         1 <0>         0.0573
     40 H10        -0.8324   -1.0959    3.0290 H         1 <0>         0.0699
     41 H11        -1.6728   -2.5838    2.5309 H         1 <0>         0.0623
     42 H12         0.1989   -3.9410    3.4273 H         1 <0>         0.0690
     43 H13         1.0393   -2.4531    3.9254 H         1 <0>         0.0624
     44 H14        -1.9645   -4.5743    4.5049 H         1 <0>         0.0682
     45 H15        -2.6653   -3.5375    5.7708 H         1 <0>         0.0605
     46 H16        -2.6420   -2.9844    4.0791 H         1 <0>         0.0659
     47 H17         1.0066   -3.2295    6.2999 H         1 <0>         0.0572
     48 H18        -0.5345   -3.6807    7.0676 H         1 <0>         0.0633
     49 H19         0.1662   -4.7174    5.8018 H         1 <0>         0.0650
     50 H20        -0.0788   -1.0812    5.6730 H         1 <0>         0.3741
     51 H21         1.1786   -3.2634   -1.5387 H         1 <0>         0.0597
     52 H22        -0.3966   -3.5762   -0.7554 H         1 <0>         0.0648
     53 H23        -0.0170   -3.7185   -3.5085 H         1 <0>         0.0613
     54 H24        -1.5917   -3.2891   -2.7634 H         1 <0>         0.0658
     55 H25        -0.4701    1.2972   -1.5105 H         1 <0>         0.0664
     56 H26         0.7157    0.7301   -2.7185 H         1 <0>         0.0601
     57 H27        -2.2719    1.1832   -3.1881 H         1 <0>         0.0633
     58 H28        -0.9565    2.2120   -3.7898 H         1 <0>         0.0569
     59 H29        -1.8410    0.6538   -5.5211 H         1 <0>         0.0589
     60 H30        -0.1153    0.4092   -5.1861 H         1 <0>         0.0546
     61 H31        -2.4026   -1.2969   -4.1044 H         1 <0>         0.0756
     62 H32        -0.1801   -1.8209   -6.1335 H         1 <0>         0.0821
     63 H33        -1.2307   -3.0852   -5.4508 H         1 <0>         0.0705
     64 H34        -3.2564   -1.6132   -6.4362 H         1 <0>         0.1067
     65 H35        -3.5690   -0.2482   -8.3559 H         1 <0>         0.0676
     66 H36        -2.0508    0.2833   -9.1260 H         1 <0>         0.0847
     67 H37        -2.0759   -2.3722  -11.7584 H         1 <0>         0.0691
     68 H38        -1.0902   -1.1018  -10.9980 H         1 <0>         0.0727
     69 H39        -1.9131   -3.7128   -9.6511 H         1 <0>         0.0653
     70 H40        -0.3210   -3.4012  -10.3840 H         1 <0>         0.0723
     71 H41         0.7205   -0.7685   -7.9880 H         1 <0>         0.0551
     72 H42         1.2559   -1.7968   -9.3387 H         1 <0>         0.0553
     73 H43         0.0451   -0.5220   -9.6163 H         1 <0>         0.0582
     74 H44        -1.0443   -3.7029   -7.0281 H         1 <0>         0.0694
     75 H45         0.2664   -4.1290   -8.1545 H         1 <0>         0.0504
     76 H46         0.5211   -2.8613   -6.9313 H         1 <0>         0.0672
     77 H47        -4.4938    0.0006  -10.7137 H         1 <0>         0.3777
     78 H48        -2.4347   -0.2497   -0.9100 H         1 <0>         0.0612
     79 H49        -2.7789   -0.4145   -2.6486 H         1 <0>         0.0606
     80 H50        -2.5035   -1.8650   -1.6544 H         1 <0>         0.0545
@<TRIPOS>BOND
     1    1    2 1
     2    1   34 1
     3    1   35 1
     4    1   36 1
     5    2    3 1
     6    2   10 1
     7    2   37 1
     8    3    4 1
     9    3   38 1
    10    3   39 1
    11    4    5 1
    12    4   40 1
    13    4   41 1
    14    5    6 1
    15    5   42 1
    16    5   43 1
    17    6    7 1
    18    6    8 1
    19    6    9 1
    20    7   44 1
    21    7   45 1
    22    7   46 1
    23    8   47 1
    24    8   48 1
    25    8   49 1
    26    9   50 1
    27   10   11 1
    28   10   16 1
    29   10   12 1
    30   12   13 1
    31   12   51 1
    32   12   52 1
    33   13   14 1
    34   13   53 1
    35   13   54 1
    36   14   15 1
    37   14   20 1
    38   14   16 1
    39   16   17 1
    40   16   33 1
    41   17   18 1
    42   17   55 1
    43   17   56 1
    44   18   19 1
    45   18   57 1
    46   18   58 1
    47   19   20 1
    48   19   59 1
    49   19   60 1
    50   20   21 1
    51   20   61 1
    52   21   22 1
    53   21   62 1
    54   21   63 1
    55   22   23 2
    56   22   64 1
    57   23   29 1
    58   23   24 1
    59   24   25 1
    60   24   65 1
    61   24   66 1
    62   25   26 1
    63   25   27 1
    64   25   32 1
    65   27   28 1
    66   27   67 1
    67   27   68 1
    68   28   29 1
    69   28   69 1
    70   28   70 1
    71   29   30 1
    72   29   31 1
    73   30   71 1
    74   30   72 1
    75   30   73 1
    76   31   74 1
    77   31   75 1
    78   31   76 1
    79   32   77 1
    80   33   78 1
    81   33   79 1
    82   33   80 1
@<TRIPOS>MOLECULE
CHEMBL306742__2
   80    82     0     0     0
SMALL
USER_CHARGES

@<TRIPOS>ATOM
      1 C1         -0.3981    1.0486   -0.0777 C.3       1 <0>        -0.1516
      2 C2         -0.2853   -0.4770   -0.0478 C.3       1 <0>        -0.0858
      3 C3          0.2497   -0.9752   -1.3918 C.3       1 <0>        -0.1243
      4 C4         -0.7440   -0.6199   -2.4996 C.3       1 <0>        -0.1181
      5 C5         -0.2090   -1.1182   -3.8437 C.3       1 <0>        -0.1441
      6 C6         -1.2027   -0.7629   -4.9515 C.3       1 <0>         0.1250
      7 C7         -1.3843    0.7553   -5.0060 C.3       1 <0>        -0.1420
      8 C8         -0.6677   -1.2611   -6.2955 C.3       1 <0>        -0.1801
      9 O1         -2.4608   -1.3837   -4.6799 O.3       1 <0>        -0.5591
     10 C9          0.6709   -0.8951    1.0675 C.3       1 <0>        -0.0779
     11 H1          1.6749   -0.5302    0.8819 H         1 <0>         0.0692
     12 C10         0.1481   -0.4022    2.4425 C.3       1 <0>        -0.1210
     13 C11         0.1118   -1.6550    3.3701 C.3       1 <0>        -0.1180
     14 C12         1.1172   -2.5815    2.6696 C.3       1 <0>        -0.0729
     15 H2          2.1201   -2.1035    2.7793 H         1 <0>         0.0631
     16 C13         0.6833   -2.4294    1.1982 C.3       1 <0>        -0.0504
     17 C14         1.6632   -3.1592    0.3094 C.3       1 <0>        -0.1073
     18 C15         1.6782   -4.6392    0.7133 C.3       1 <0>        -0.1151
     19 C16         2.0799   -4.8222    2.1691 C.3       1 <0>        -0.1129
     20 C17         1.2309   -3.9957    3.1399 C.3       1 <0>        -0.0651
     21 C18        -0.1001   -4.6788    3.4298 C.3       1 <0>        -0.0918
     22 C19         0.1530   -6.0396    4.0259 C.2       1 <0>        -0.1565
     23 C20        -0.5479   -6.4440    5.0561 C.2       1 <0>        -0.1176
     24 C21         0.0459   -7.3921    6.0742 C.3       1 <0>        -0.1112
     25 C22        -0.9181   -8.5677    6.2656 C.3       1 <0>         0.1056
     26 H3         -0.9832   -9.1389    5.3396 H         1 <0>         0.0538
     27 C23        -2.3034   -8.0340    6.6341 C.3       1 <0>        -0.1159
     28 C24        -2.8625   -7.2014    5.4792 C.3       1 <0>        -0.1007
     29 C25        -1.9696   -5.9699    5.2614 C.3       1 <0>        -0.0255
     30 C26        -2.0354   -5.0588    6.4888 C.3       1 <0>        -0.1427
     31 C27        -2.4400   -5.2046    4.0228 C.3       1 <0>        -0.1568
     32 O2         -0.4381   -9.4120    7.3137 O.3       1 <0>        -0.5699
     33 C28        -0.7385   -2.9181    0.9272 C.3       1 <0>        -0.1493
     34 H4          0.5851    1.4821   -0.2606 H         1 <0>         0.0505
     35 H5         -1.0805    1.3470   -0.8735 H         1 <0>         0.0547
     36 H6         -0.7793    1.4035    0.8799 H         1 <0>         0.0537
     37 H7         -1.2686   -0.9105    0.1351 H         1 <0>         0.0783
     38 H8          1.2093   -0.5017   -1.5990 H         1 <0>         0.0570
     39 H9          0.3791   -2.0568   -1.3530 H         1 <0>         0.0739
     40 H10        -1.7037   -1.0935   -2.2925 H         1 <0>         0.0658
     41 H11        -0.8734    0.4617   -2.5385 H         1 <0>         0.0660
     42 H12         0.7507   -0.6446   -4.0508 H         1 <0>         0.0688
     43 H13        -0.0796   -2.1998   -3.8048 H         1 <0>         0.0622
     44 H14        -0.4247    1.2288   -5.2132 H         1 <0>         0.0681
     45 H15        -2.0923    1.0084   -5.7953 H         1 <0>         0.0604
     46 H16        -1.7655    1.1103   -4.0485 H         1 <0>         0.0658
     47 H17        -0.5383   -2.3427   -6.2567 H         1 <0>         0.0571
     48 H18        -1.3756   -1.0080   -7.0848 H         1 <0>         0.0632
     49 H19         0.2920   -0.7876   -6.5027 H         1 <0>         0.0649
     50 H20        -2.4209   -2.3486   -4.6311 H         1 <0>         0.3739
     51 H21         0.8258    0.3432    2.8550 H         1 <0>         0.0599
     52 H22        -0.8535    0.0102    2.3373 H         1 <0>         0.0652
     53 H23         0.4747   -1.3914    4.3666 H         1 <0>         0.0578
     54 H24        -0.8825   -2.0747    3.4231 H         1 <0>         0.0711
     55 H25         1.3608   -3.0653   -0.7364 H         1 <0>         0.0693
     56 H26         2.6627   -2.7336    0.4310 H         1 <0>         0.0584
     57 H27         0.7084   -5.0945    0.5345 H         1 <0>         0.0623
     58 H28         2.4118   -5.1602    0.0845 H         1 <0>         0.0526
     59 H29         1.9892   -5.8804    2.4304 H         1 <0>         0.0625
     60 H30         3.1296   -4.5356    2.2841 H         1 <0>         0.0538
     61 H31         1.7896   -3.9782    4.1091 H         1 <0>         0.0554
     62 H32        -0.6729   -4.0747    4.1334 H         1 <0>         0.0842
     63 H33        -0.6624   -4.7873    2.5023 H         1 <0>         0.0774
     64 H34         0.9121   -6.6813    3.6037 H         1 <0>         0.1097
     65 H35         1.0063   -7.7612    5.7143 H         1 <0>         0.0675
     66 H36         0.1824   -6.8724    7.0226 H         1 <0>         0.0848
     67 H37        -2.9725   -8.8708    6.8346 H         1 <0>         0.0691
     68 H38        -2.2265   -7.4114    7.5255 H         1 <0>         0.0727
     69 H39        -2.8815   -7.8050    4.5718 H         1 <0>         0.0652
     70 H40        -3.8745   -6.8769    5.7215 H         1 <0>         0.0724
     71 H41        -1.3849   -4.1975    6.3372 H         1 <0>         0.0552
     72 H42        -3.0607   -4.7187    6.6343 H         1 <0>         0.0557
     73 H43        -1.7074   -5.6113    7.3693 H         1 <0>         0.0581
     74 H44        -1.9763   -5.6320    3.1338 H         1 <0>         0.0694
     75 H45        -3.5242   -5.2802    3.9391 H         1 <0>         0.0505
     76 H46        -2.1548   -4.1565    4.1132 H         1 <0>         0.0677
     77 H47         0.4381   -9.7859    7.1475 H         1 <0>         0.3777
     78 H48        -1.0212   -2.6646   -0.0946 H         1 <0>         0.0625
     79 H49        -0.7824   -3.9992    1.0588 H         1 <0>         0.0571
     80 H50        -1.4263   -2.4390    1.6239 H         1 <0>         0.0569
@<TRIPOS>BOND
     1    1    2 1
     2    1   34 1
     3    1   35 1
     4    1   36 1
     5    2    3 1
     6    2   10 1
     7    2   37 1
     8    3    4 1
     9    3   38 1
    10    3   39 1
    11    4    5 1
    12    4   40 1
    13    4   41 1
    14    5    6 1
    15    5   42 1
    16    5   43 1
    17    6    7 1
    18    6    8 1
    19    6    9 1
    20    7   44 1
    21    7   45 1
    22    7   46 1
    23    8   47 1
    24    8   48 1
    25    8   49 1
    26    9   50 1
    27   10   11 1
    28   10   16 1
    29   10   12 1
    30   12   13 1
    31   12   51 1
    32   12   52 1
    33   13   14 1
    34   13   53 1
    35   13   54 1
    36   14   15 1
    37   14   20 1
    38   14   16 1
    39   16   17 1
    40   16   33 1
    41   17   18 1
    42   17   55 1
    43   17   56 1
    44   18   19 1
    45   18   57 1
    46   18   58 1
    47   19   20 1
    48   19   59 1
    49   19   60 1
    50   20   21 1
    51   20   61 1
    52   21   22 1
    53   21   62 1
    54   21   63 1
    55   22   23 2
    56   22   64 1
    57   23   29 1
    58   23   24 1
    59   24   25 1
    60   24   65 1
    61   24   66 1
    62   25   26 1
    63   25   27 1
    64   25   32 1
    65   27   28 1
    66   27   67 1
    67   27   68 1
    68   28   29 1
    69   28   69 1
    70   28   70 1
    71   29   30 1
    72   29   31 1
    73   30   71 1
    74   30   72 1
    75   30   73 1
    76   31   74 1
    77   31   75 1
    78   31   76 1
    79   32   77 1
    80   33   78 1
    81   33   79 1
    82   33   80 1
@<TRIPOS>MOLECULE
CHEMBL306742__3
   80    82     0     0     0
SMALL
USER_CHARGES

@<TRIPOS>ATOM
      1 C1         -1.0726    1.9802    0.9443 C.3       1 <0>        -0.1512
      2 C2         -1.0558    0.4617    0.7577 C.3       1 <0>        -0.0829
      3 C3         -0.6485    0.1289   -0.6790 C.3       1 <0>        -0.1238
      4 C4         -1.7180    0.6435   -1.6445 C.3       1 <0>        -0.1179
      5 C5         -1.3107    0.3107   -3.0813 C.3       1 <0>        -0.1441
      6 C6         -2.3802    0.8253   -4.0468 C.3       1 <0>         0.1250
      7 C7         -2.5181    2.3414   -3.8940 C.3       1 <0>        -0.1419
      8 C8         -1.9728    0.4925   -5.4835 C.3       1 <0>        -0.1801
      9 O1         -3.6306    0.2009   -3.7494 O.3       1 <0>        -0.5591
     10 C9         -0.0514   -0.1605    1.7298 C.3       1 <0>        -0.0724
     11 H1          0.9457    0.2419    1.5506 H         1 <0>         0.0686
     12 C10        -0.4835    0.1078    3.1930 C.3       1 <0>        -0.1195
     13 C11        -0.6270   -1.2830    3.8693 C.3       1 <0>        -0.1172
     14 C12         0.2836   -2.1743    3.0175 C.3       1 <0>        -0.0816
     15 H2          1.3304   -1.9862    3.2559 H         1 <0>         0.0707
     16 C13        -0.0432   -1.6783    1.5815 C.3       1 <0>        -0.0549
     17 C14         1.0011   -2.2629    0.6507 C.3       1 <0>        -0.1065
     18 C15         0.8243   -3.7902    0.6680 C.3       1 <0>        -0.1211
     19 C16         0.9526   -4.3508    2.0812 C.3       1 <0>        -0.1087
     20 C17        -0.0112   -3.6623    3.0708 C.3       1 <0>        -0.0741
     21 C18         0.2122   -4.1869    4.4905 C.3       1 <0>        -0.0890
     22 C19        -0.1998   -5.6347    4.5617 C.2       1 <0>        -0.1523
     23 C20         0.5588   -6.5017    5.1854 C.2       1 <0>        -0.1185
     24 C21         0.6265   -7.9425    4.7295 C.3       1 <0>        -0.1104
     25 C22         0.3738   -8.8485    5.9391 C.3       1 <0>         0.1053
     26 H3         -0.6462   -8.7038    6.2950 H         1 <0>         0.0538
     27 C23         1.3584   -8.4934    7.0546 C.3       1 <0>        -0.1157
     28 C24         1.1094   -7.0609    7.5294 C.3       1 <0>        -0.1007
     29 C25         1.3943   -6.0862    6.3760 C.3       1 <0>        -0.0254
     30 C26         2.8780   -6.1404    6.0067 C.3       1 <0>        -0.1424
     31 C27         1.0172   -4.6646    6.7975 C.3       1 <0>        -0.1560
     32 O2          0.5566  -10.2137    5.5585 O.3       1 <0>        -0.5700
     33 C28        -1.4340   -2.1656    1.1704 C.3       1 <0>        -0.1551
     34 H4         -0.0788    2.3816    0.7462 H         1 <0>         0.0512
     35 H5         -1.7882    2.4235    0.2518 H         1 <0>         0.0547
     36 H6         -1.3628    2.2173    1.9679 H         1 <0>         0.0538
     37 H7         -2.0497    0.0603    0.9559 H         1 <0>         0.0743
     38 H8          0.3053    0.6052   -0.9058 H         1 <0>         0.0572
     39 H9         -0.5502   -0.9512   -0.7878 H         1 <0>         0.0741
     40 H10        -2.6718    0.1672   -1.4177 H         1 <0>         0.0658
     41 H11        -1.8163    1.7236   -1.5357 H         1 <0>         0.0658
     42 H12        -0.3569    0.7870   -3.3081 H         1 <0>         0.0690
     43 H13        -1.2124   -0.7694   -3.1901 H         1 <0>         0.0622
     44 H14        -1.5643    2.8177   -4.1209 H         1 <0>         0.0682
     45 H15        -3.2801    2.7081   -4.5819 H         1 <0>         0.0605
     46 H16        -2.8083    2.5785   -2.8705 H         1 <0>         0.0658
     47 H17        -1.8746   -0.5876   -5.5924 H         1 <0>         0.0571
     48 H18        -2.7348    0.8591   -6.1714 H         1 <0>         0.0632
     49 H19        -1.0190    0.9688   -5.7104 H         1 <0>         0.0650
     50 H20        -3.6170   -0.7630   -3.8261 H         1 <0>         0.3739
     51 H21         0.2771    0.6965    3.7058 H         1 <0>         0.0600
     52 H22        -1.4386    0.6327    3.2107 H         1 <0>         0.0646
     53 H23        -0.2769   -1.2482    4.9009 H         1 <0>         0.0615
     54 H24        -1.6593   -1.6299    3.8227 H         1 <0>         0.0661
     55 H25         0.8511   -1.8835   -0.3601 H         1 <0>         0.0659
     56 H26         1.9992   -2.0010    1.0018 H         1 <0>         0.0601
     57 H27        -0.1609   -4.0394    0.2739 H         1 <0>         0.0638
     58 H28         1.5858   -4.2444    0.0340 H         1 <0>         0.0566
     59 H29         0.7387   -5.4195    2.0612 H         1 <0>         0.0589
     60 H30         1.9730   -4.1994    2.4332 H         1 <0>         0.0546
     61 H31        -1.0403   -3.8479    2.7633 H         1 <0>         0.0751
     62 H32         1.2671   -4.0962    4.7496 H         1 <0>         0.0804
     63 H33        -0.3855   -3.6042    5.1915 H         1 <0>         0.0708
     64 H34        -1.1204   -5.9576    4.0985 H         1 <0>         0.1068
     65 H35        -0.1356   -8.1228    3.9715 H         1 <0>         0.0675
     66 H36         1.6138   -8.1498    4.3167 H         1 <0>         0.0847
     67 H37         1.2229   -9.1806    7.8898 H         1 <0>         0.0691
     68 H38         2.3779   -8.5785    6.6785 H         1 <0>         0.0726
     69 H39         0.0720   -6.9585    7.8475 H         1 <0>         0.0653
     70 H40         1.7705   -6.8352    8.3661 H         1 <0>         0.0724
     71 H41         3.0704   -5.4623    5.1752 H         1 <0>         0.0550
     72 H42         3.4776   -5.8406    6.8662 H         1 <0>         0.0553
     73 H43         3.1431   -7.1567    5.7155 H         1 <0>         0.0582
     74 H44        -0.0490   -4.5077    6.6334 H         1 <0>         0.0674
     75 H45         1.2465   -4.5259    7.8540 H         1 <0>         0.0507
     76 H46         1.5853   -3.9473    6.2052 H         1 <0>         0.0680
     77 H47        -0.0356  -10.5080    4.8530 H         1 <0>         0.3777
     78 H48        -1.7007   -1.7320    0.2066 H         1 <0>         0.0643
     79 H49        -1.4294   -3.2527    1.0910 H         1 <0>         0.0599
     80 H50        -2.1628   -1.8592    1.9208 H         1 <0>         0.0544
@<TRIPOS>BOND
     1    1    2 1
     2    1   34 1
     3    1   35 1
     4    1   36 1
     5    2    3 1
     6    2   10 1
     7    2   37 1
     8    3    4 1
     9    3   38 1
    10    3   39 1
    11    4    5 1
    12    4   40 1
    13    4   41 1
    14    5    6 1
    15    5   42 1
    16    5   43 1
    17    6    7 1
    18    6    8 1
    19    6    9 1
    20    7   44 1
    21    7   45 1
    22    7   46 1
    23    8   47 1
    24    8   48 1
    25    8   49 1
    26    9   50 1
    27   10   11 1
    28   10   16 1
    29   10   12 1
    30   12   13 1
    31   12   51 1
    32   12   52 1
    33   13   14 1
    34   13   53 1
    35   13   54 1
    36   14   15 1
    37   14   20 1
    38   14   16 1
    39   16   17 1
    40   16   33 1
    41   17   18 1
    42   17   55 1
    43   17   56 1
    44   18   19 1
    45   18   57 1
    46   18   58 1
    47   19   20 1
    48   19   59 1
    49   19   60 1
    50   20   21 1
    51   20   61 1
    52   21   22 1
    53   21   62 1
    54   21   63 1
    55   22   23 2
    56   22   64 1
    57   23   29 1
    58   23   24 1
    59   24   25 1
    60   24   65 1
    61   24   66 1
    62   25   26 1
    63   25   27 1
    64   25   32 1
    65   27   28 1
    66   27   67 1
    67   27   68 1
    68   28   29 1
    69   28   69 1
    70   28   70 1
    71   29   30 1
    72   29   31 1
    73   30   71 1
    74   30   72 1
    75   30   73 1
    76   31   74 1
    77   31   75 1
    78   31   76 1
    79   32   77 1
    80   33   78 1
    81   33   79 1
    82   33   80 1
@<TRIPOS>MOLECULE
CHEMBL403646
   75    78     0     0     0
SMALL
USER_CHARGES

@<TRIPOS>ATOM
      1 C1          0.9592   -0.9275   -0.3742 C.3       1 <0>        -0.1565
      2 C2         -0.1254    0.1426   -0.2348 C.3       1 <0>        -0.0598
      3 C3         -0.0425    1.1098   -1.4174 C.3       1 <0>        -0.1481
      4 C4         -1.4810   -0.5154   -0.2181 C.2       1 <0>         0.1611
      5 C5         -2.4226   -0.3421    0.7295 C.2       1 <0>        -0.6695
      6 C6         -3.5407   -1.1336    0.3738 C.2       1 <0>        -0.0261
      7 C7         -3.2185   -1.7728   -0.8114 C.2       1 <0>         0.0324
      8 N1         -1.9543   -1.3778   -1.1631 N.pl3     1 <0>        -0.4207
      9 C8         -1.2278   -1.8137   -2.3583 C.3       1 <0>         0.0957
     10 C9         -0.4866   -3.1178   -2.0572 C.3       1 <0>        -0.1865
     11 C10         0.3443   -3.5252   -3.2756 C.3       1 <0>         0.1189
     12 H1         -0.3010   -3.5844   -4.1521 H         1 <0>         0.0986
     13 C11         0.9862   -4.8907   -3.0218 C.3       1 <0>        -0.1864
     14 C12         1.7141   -5.3548   -4.2850 C.3       1 <0>         0.1389
     15 H2          1.0209   -5.3501   -5.1262 H         1 <0>         0.0923
     16 C13         2.2495   -6.7723   -4.0733 C.3       1 <0>        -0.2190
     17 C14         2.8584   -7.2761   -5.3565 C.2       1 <0>         0.4915
     18 O1          2.8636   -6.5671   -6.3484 O.co2     1 <0>        -0.6812
     19 O2          3.3458   -8.3927   -5.4028 O.co2     1 <0>        -0.7154
     20 O3          2.8025   -4.4706   -4.5597 O.3       1 <0>        -0.5279
     21 O4          1.3667   -2.5528   -3.5017 O.3       1 <0>        -0.5404
     22 C15        -4.0820   -2.7055   -1.5626 C.ar      1 <0>        -0.0115
     23 C16        -3.6578   -4.0144   -1.8029 C.ar      1 <0>        -0.0843
     24 C17        -4.4686   -4.8811   -2.5051 C.ar      1 <0>        -0.1500
     25 C18        -5.7019   -4.4555   -2.9725 C.ar      1 <0>         0.0960
     26 C19        -6.1281   -3.1579   -2.7372 C.ar      1 <0>        -0.1501
     27 C20        -5.3286   -2.2841   -2.0308 C.ar      1 <0>        -0.0635
     28 F1         -6.4916   -5.3087   -3.6607 F         1 <0>        -0.1425
     29 C21        -4.8119   -1.2550    1.1255 C.ar      1 <0>         0.0034
     30 C22        -5.1661   -2.4705    1.7101 C.ar      1 <0>        -0.1019
     31 C23        -6.3509   -2.5772    2.4092 C.ar      1 <0>        -0.1272
     32 C24        -7.1869   -1.4817    2.5304 C.ar      1 <0>        -0.1261
     33 C25        -6.8411   -0.2734    1.9523 C.ar      1 <0>        -0.1182
     34 C26        -5.6559   -0.1527    1.2560 C.ar      1 <0>        -0.0768
     35 S1         -2.2866    0.6845    2.1551 S.o2      1 <0>         2.6288
     36 O5         -3.3284    0.2928    3.0385 O.2       1 <0>        -1.0235
     37 O6         -0.9180    0.6696    2.5371 O.2       1 <0>        -1.0415
     38 N2         -2.6279    2.2330    1.6777 N.2       1 <0>        -1.0929
     39 C27        -2.5970    3.2737    2.6088 C.ar      1 <0>         0.2839
     40 C28        -2.2744    3.0124    3.9344 C.ar      1 <0>        -0.2670
     41 C29        -2.2442    4.0438    4.8523 C.ar      1 <0>        -0.0684
     42 C30        -2.5351    5.3354    4.4532 C.ar      1 <0>        -0.2366
     43 C31        -2.8567    5.5990    3.1344 C.ar      1 <0>        -0.0826
     44 C32        -2.8831    4.5732    2.2101 C.ar      1 <0>        -0.1883
     45 H3          1.9373   -0.4780   -0.2027 H         1 <0>         0.0655
     46 H4          0.7881   -1.7159    0.3588 H         1 <0>         0.0565
     47 H5          0.9250   -1.3510   -1.3780 H         1 <0>         0.0639
     48 H6          0.0235    0.6918    0.6949 H         1 <0>         0.1283
     49 H7         -0.2910    0.5809   -2.3375 H         1 <0>         0.0514
     50 H8         -0.7465    1.9283   -1.2674 H         1 <0>         0.0691
     51 H9          0.9691    1.5093   -1.4899 H         1 <0>         0.0639
     52 H10        -1.9332   -1.9764   -3.1731 H         1 <0>         0.0871
     53 H11        -0.5098   -1.0461   -2.6471 H         1 <0>         0.1104
     54 H12         0.1718   -2.9722   -1.2007 H         1 <0>         0.0847
     55 H13        -1.2087   -3.9023   -1.8311 H         1 <0>         0.0792
     56 H14         1.6987   -4.8102   -2.2008 H         1 <0>         0.0642
     57 H15         0.2126   -5.6132   -2.7620 H         1 <0>         0.0736
     58 H16         3.0084   -6.7610   -3.2910 H         1 <0>         0.0563
     59 H17         1.4317   -7.4291   -3.7768 H         1 <0>         0.0606
     60 H18         3.4600   -4.4245   -3.8521 H         1 <0>         0.3503
     61 H19         1.9794   -2.4468   -2.7611 H         1 <0>         0.3664
     62 H20        -2.6966   -4.3469   -1.4397 H         1 <0>         0.1347
     63 H21        -4.1417   -5.8934   -2.6915 H         1 <0>         0.1368
     64 H22        -7.0900   -2.8316   -3.1041 H         1 <0>         0.1358
     65 H23        -5.6636   -1.2745   -1.8441 H         1 <0>         0.1361
     66 H24        -4.5146   -3.3266    1.6155 H         1 <0>         0.1121
     67 H25        -6.6264   -3.5181    2.8624 H         1 <0>         0.1135
     68 H26        -8.1134   -1.5701    3.0783 H         1 <0>         0.1124
     69 H27        -7.4979    0.5784    2.0499 H         1 <0>         0.1168
     70 H28        -5.3849    0.7923    0.8088 H         1 <0>         0.1234
     71 H29        -2.0478    2.0037    4.2469 H         1 <0>         0.0943
     72 H30        -1.9935    3.8413    5.8831 H         1 <0>         0.0970
     73 H31        -2.5115    6.1400    5.1732 H         1 <0>         0.0960
     74 H32        -3.0833    6.6089    2.8259 H         1 <0>         0.0996
     75 H33        -3.1299    4.7805    1.1793 H         1 <0>         0.1083
@<TRIPOS>BOND
     1    1    2 1
     2    1   45 1
     3    1   46 1
     4    1   47 1
     5    2    3 1
     6    2    4 1
     7    2   48 1
     8    3   49 1
     9    3   50 1
    10    3   51 1
    11    4    8 1
    12    4    5 2
    13    5    6 1
    14    5   35 1
    15    6    7 2
    16    6   29 1
    17    7    8 1
    18    7   22 1
    19    8    9 1
    20    9   10 1
    21    9   52 1
    22    9   53 1
    23   10   11 1
    24   10   54 1
    25   10   55 1
    26   11   12 1
    27   11   13 1
    28   11   21 1
    29   13   14 1
    30   13   56 1
    31   13   57 1
    32   14   15 1
    33   14   16 1
    34   14   20 1
    35   16   17 1
    36   16   58 1
    37   16   59 1
    38   17   18 2
    39   17   19 1
    40   20   60 1
    41   21   61 1
    42   22   27 ar
    43   22   23 ar
    44   23   24 ar
    45   23   62 1
    46   24   25 ar
    47   24   63 1
    48   25   26 ar
    49   25   28 1
    50   26   27 ar
    51   26   64 1
    52   27   65 1
    53   29   34 ar
    54   29   30 ar
    55   30   31 ar
    56   30   66 1
    57   31   32 ar
    58   31   67 1
    59   32   33 ar
    60   32   68 1
    61   33   34 ar
    62   33   69 1
    63   34   70 1
    64   35   36 2
    65   35   37 2
    66   35   38 1
    67   38   39 1
    68   39   44 ar
    69   39   40 ar
    70   40   41 ar
    71   40   71 1
    72   41   42 ar
    73   41   72 1
    74   42   43 ar
    75   42   73 1
    76   43   44 ar
    77   43   74 1
    78   44   75 1
@<TRIPOS>MOLECULE
CHEMBL403646__1
   76    79     0     0     0
SMALL
USER_CHARGES

@<TRIPOS>ATOM
      1 C1          2.1217    3.3375    0.6905 C.3       1 <0>        -0.1321
      2 C2          2.0102    1.8771    1.1330 C.3       1 <0>        -0.0442
      3 C3          2.0439    1.8032    2.6608 C.3       1 <0>        -0.1396
      4 C4          0.7129    1.2976    0.6305 C.2       1 <0>         0.1811
      5 C5         -0.5181    1.6875    1.0140 C.2       1 <0>        -0.7281
      6 C6         -1.4577    0.8968    0.3105 C.2       1 <0>        -0.0266
      7 C7         -0.7328    0.0344   -0.4945 C.2       1 <0>         0.0623
      8 N1          0.5963    0.2978   -0.2902 N.pl3     1 <0>        -0.4146
      9 C8          1.7111   -0.3857   -0.9506 C.3       1 <0>         0.0892
     10 C9          2.1267   -1.6024   -0.1212 C.3       1 <0>        -0.1664
     11 C10         3.2910   -2.3162   -0.8110 C.3       1 <0>         0.1179
     12 H1          3.0103   -2.5635   -1.8348 H         1 <0>         0.0995
     13 C11         3.6250   -3.6005   -0.0494 C.3       1 <0>        -0.1849
     14 C12         4.7038   -4.3769   -0.8072 C.3       1 <0>         0.1383
     15 H2          4.3738   -4.5521   -1.8311 H         1 <0>         0.0926
     16 C13         4.9487   -5.7185   -0.1136 C.3       1 <0>        -0.2191
     17 C14         5.9204   -6.5344   -0.9268 C.2       1 <0>         0.4905
     18 O1          6.3748   -6.0845   -1.9649 O.co2     1 <0>        -0.6810
     19 O2          6.2520   -7.6443   -0.5466 O.co2     1 <0>        -0.7121
     20 O3          5.9153   -3.6192   -0.8203 O.3       1 <0>        -0.5276
     21 O4          4.4345   -1.4593   -0.8243 O.3       1 <0>        -0.5408
     22 C15        -1.2905   -0.9803   -1.4107 C.ar      1 <0>        -0.0280
     23 C16        -0.7742   -1.1191   -2.7010 C.ar      1 <0>        -0.0852
     24 C17        -1.2991   -2.0685   -3.5523 C.ar      1 <0>        -0.1465
     25 C18        -2.3373   -2.8837   -3.1299 C.ar      1 <0>         0.1053
     26 C19        -2.8537   -2.7505   -1.8507 C.ar      1 <0>        -0.1476
     27 C20        -2.3326   -1.8088   -0.9885 C.ar      1 <0>        -0.0625
     28 F1         -2.8482   -3.8115   -3.9686 F         1 <0>        -0.1369
     29 C21        -2.9336    0.9764    0.4153 C.ar      1 <0>        -0.0213
     30 C22        -3.5841    0.4672    1.5387 C.ar      1 <0>        -0.1152
     31 C23        -4.9587    0.5447    1.6308 C.ar      1 <0>        -0.1189
     32 C24        -5.6914    1.1258    0.6113 C.ar      1 <0>        -0.1162
     33 C25        -5.0517    1.6323   -0.5058 C.ar      1 <0>        -0.1161
     34 C26        -3.6771    1.5662   -0.6065 C.ar      1 <0>        -0.0855
     35 S1         -0.8913    2.9534    2.1815 S.o2      1 <0>         2.7048
     36 O5          0.3429    3.5721    2.5181 O.2       1 <0>        -0.9439
     37 O6         -1.9898    3.6830    1.6522 O.2       1 <0>        -0.9542
     38 N2         -1.4368    2.2070    3.5554 N.pl3     1 <0>        -1.0672
     39 C27        -0.6199    1.2929    4.2249 C.ar      1 <0>         0.1357
     40 C28        -0.4248    0.0208    3.7022 C.ar      1 <0>        -0.1184
     41 C29         0.3839   -0.8804    4.3665 C.ar      1 <0>        -0.1076
     42 C30         0.9987   -0.5176    5.5509 C.ar      1 <0>        -0.1118
     43 C31         0.8066    0.7480    6.0740 C.ar      1 <0>        -0.1099
     44 C32         0.0038    1.6560    5.4118 C.ar      1 <0>        -0.1073
     45 H3          2.7783    3.8752    1.3744 H         1 <0>         0.0739
     46 H4          2.5330    3.3812   -0.3180 H         1 <0>         0.0474
     47 H5          1.1330    3.7965    0.6998 H         1 <0>         0.0605
     48 H6          2.8450    1.3086    0.7232 H         1 <0>         0.0852
     49 H7          1.0461    1.9937    3.0559 H         1 <0>         0.0706
     50 H8          2.3735    0.8111    2.9693 H         1 <0>         0.0457
     51 H9          2.7362    2.5520    3.0456 H         1 <0>         0.0710
     52 H10         1.4006   -0.7116   -1.9434 H         1 <0>         0.0996
     53 H11         2.5550    0.2984   -1.0402 H         1 <0>         0.1062
     54 H12         2.4372   -1.2765    0.8715 H         1 <0>         0.0748
     55 H13         1.2829   -2.2865   -0.0317 H         1 <0>         0.0794
     56 H14         3.9905   -3.3480    0.9460 H         1 <0>         0.0641
     57 H15         2.7288   -4.2148    0.0376 H         1 <0>         0.0740
     58 H16         5.3629   -5.5439    0.8794 H         1 <0>         0.0564
     59 H17         4.0063   -6.2587   -0.0243 H         1 <0>         0.0606
     60 H18         6.2677   -3.4257    0.0591 H         1 <0>         0.3503
     61 H19         4.7406   -1.1982    0.0550 H         1 <0>         0.3671
     62 H20         0.0343   -0.4839   -3.0315 H         1 <0>         0.1324
     63 H21        -0.9007   -2.1767   -4.5503 H         1 <0>         0.1402
     64 H22        -3.6630   -3.3883   -1.5271 H         1 <0>         0.1390
     65 H23        -2.7328   -1.7089    0.0096 H         1 <0>         0.1356
     66 H24        -3.0132    0.0127    2.3349 H         1 <0>         0.1220
     67 H25        -5.4636    0.1507    2.5004 H         1 <0>         0.1228
     68 H26        -6.7671    1.1839    0.6877 H         1 <0>         0.1207
     69 H27        -5.6290    2.0845   -1.2987 H         1 <0>         0.1224
     70 H28        -3.1784    1.9659   -1.4771 H         1 <0>         0.1204
     71 H29        -2.3235    2.4045    3.8952 H         1 <0>         0.4225
     72 H30        -0.9052   -0.2634    2.7777 H         1 <0>         0.1286
     73 H31         0.5360   -1.8696    3.9607 H         1 <0>         0.1254
     74 H32         1.6300   -1.2245    6.0687 H         1 <0>         0.1254
     75 H33         1.2882    1.0281    6.9991 H         1 <0>         0.1273
     76 H34        -0.1423    2.6457    5.8185 H         1 <0>         0.1287
@<TRIPOS>BOND
     1    1    2 1
     2    1   45 1
     3    1   46 1
     4    1   47 1
     5    2    3 1
     6    2    4 1
     7    2   48 1
     8    3   49 1
     9    3   50 1
    10    3   51 1
    11    4    8 1
    12    4    5 2
    13    5    6 1
    14    5   35 1
    15    6    7 2
    16    6   29 1
    17    7    8 1
    18    7   22 1
    19    8    9 1
    20    9   10 1
    21    9   52 1
    22    9   53 1
    23   10   11 1
    24   10   54 1
    25   10   55 1
    26   11   12 1
    27   11   13 1
    28   11   21 1
    29   13   14 1
    30   13   56 1
    31   13   57 1
    32   14   15 1
    33   14   16 1
    34   14   20 1
    35   16   17 1
    36   16   58 1
    37   16   59 1
    38   17   18 2
    39   17   19 1
    40   20   60 1
    41   21   61 1
    42   22   27 ar
    43   22   23 ar
    44   23   24 ar
    45   23   62 1
    46   24   25 ar
    47   24   63 1
    48   25   26 ar
    49   25   28 1
    50   26   27 ar
    51   26   64 1
    52   27   65 1
    53   29   34 ar
    54   29   30 ar
    55   30   31 ar
    56   30   66 1
    57   31   32 ar
    58   31   67 1
    59   32   33 ar
    60   32   68 1
    61   33   34 ar
    62   33   69 1
    63   34   70 1
    64   35   36 2
    65   35   37 2
    66   35   38 1
    67   38   39 1
    68   38   71 1
    69   39   44 ar
    70   39   40 ar
    71   40   41 ar
    72   40   72 1
    73   41   42 ar
    74   41   73 1
    75   42   43 ar
    76   42   74 1
    77   43   44 ar
    78   43   75 1
    79   44   76 1
@<TRIPOS>MOLECULE
CHEMBL333258
   54    57     0     0     0
SMALL
USER_CHARGES

@<TRIPOS>ATOM
      1 C1         -0.0187    1.5258    0.0104 C.3       1 <0>        -0.1416
      2 C2          0.0021   -0.0041    0.0020 C.3       1 <0>        -0.0634
      3 C3          0.7421   -0.5109    1.2415 C.3       1 <0>        -0.1412
      4 C4         -1.4117   -0.5257    0.0127 C.ar      1 <0>         0.1885
      5 C5         -1.8496   -1.3364   -1.0462 C.ar      1 <0>        -0.0921
      6 C6         -3.1644   -1.8232   -1.0390 C.ar      1 <0>         0.0284
      7 C7         -3.9936   -1.4658    0.0529 C.ar      1 <0>        -0.0833
      8 C8         -5.3198   -1.9121    0.1343 C.ar      1 <0>        -0.0841
      9 C9         -6.0893   -1.5489    1.2000 C.ar      1 <0>        -0.0308
     10 C10        -5.5724   -0.7383    2.2093 C.ar      1 <0>        -0.0937
     11 C11        -4.2886   -0.2884    2.1595 C.ar      1 <0>        -0.0760
     12 C12        -3.4653   -0.6427    1.0767 C.ar      1 <0>         0.1373
     13 N1         -2.1983   -0.2156    1.0117 N.ar      1 <0>        -0.4622
     14 Cl1        -7.7318   -2.1020    1.3004 Cl        1 <0>        -0.0605
     15 C13        -3.6684   -2.6798   -2.1336 C.ar      1 <0>        -0.0674
     16 C14        -3.7803   -2.1690   -3.4281 C.ar      1 <0>        -0.0612
     17 C15        -4.2505   -2.9724   -4.4453 C.ar      1 <0>        -0.1510
     18 C16        -4.6123   -4.2848   -4.1844 C.ar      1 <0>         0.1102
     19 C17        -4.5037   -4.7969   -2.9009 C.ar      1 <0>        -0.1500
     20 C18        -4.0288   -4.0041   -1.8775 C.ar      1 <0>        -0.0692
     21 F1         -5.0728   -5.0676   -5.1846 F         1 <0>        -0.1356
     22 C19        -0.9363   -1.6722   -2.1552 C.2       1 <0>        -0.0824
     23 C20        -0.2581   -0.7112   -2.7707 C.2       1 <0>        -0.1536
     24 C21         0.6748   -1.0543   -3.9034 C.3       1 <0>         0.1437
     25 H1          1.6996   -0.8213   -3.6141 H         1 <0>         0.0992
     26 C22         0.2957   -0.2390   -5.1426 C.3       1 <0>        -0.1477
     27 C23         1.2196   -0.6205   -6.3036 C.3       1 <0>         0.1044
     28 H2          0.9444   -0.0513   -7.1915 H         1 <0>         0.0818
     29 C24         1.0667   -2.1204   -6.5869 C.3       1 <0>        -0.2047
     30 C25         1.2554   -2.8708   -5.2867 C.2       1 <0>         0.4975
     31 O1          2.0004   -3.8197   -5.2193 O.2       1 <0>        -0.4491
     32 O2          0.5686   -2.4502   -4.2042 O.3       1 <0>        -0.3680
     33 O3          2.5744   -0.3331   -5.9516 O.3       1 <0>        -0.5635
     34 H3          1.0039    1.9031    0.0027 H         1 <0>         0.0642
     35 H4         -0.5459    1.8868   -0.8726 H         1 <0>         0.0519
     36 H5         -0.5289    1.8773    0.9072 H         1 <0>         0.0676
     37 H6          0.5123   -0.3556   -0.8948 H         1 <0>         0.0999
     38 H7          0.7568   -1.6008    1.2356 H         1 <0>         0.0532
     39 H8          1.7647   -0.1336    1.2338 H         1 <0>         0.0631
     40 H9          0.2319   -0.1594    2.1383 H         1 <0>         0.0659
     41 H10        -5.7300   -2.5400   -0.6428 H         1 <0>         0.1410
     42 H11        -6.2004   -0.4625    3.0436 H         1 <0>         0.1427
     43 H12        -3.9038    0.3392    2.9497 H         1 <0>         0.1475
     44 H13        -3.4993   -1.1464   -3.6323 H         1 <0>         0.1344
     45 H14        -4.3374   -2.5783   -5.4471 H         1 <0>         0.1400
     46 H15        -4.7876   -5.8199   -2.7029 H         1 <0>         0.1414
     47 H16        -3.9404   -4.4054   -0.8787 H         1 <0>         0.1358
     48 H17        -0.8194   -2.6998   -2.4662 H         1 <0>         0.1382
     49 H18        -0.3749    0.3164   -2.4597 H         1 <0>         0.1400
     50 H19        -0.7380   -0.4515   -5.4154 H         1 <0>         0.0973
     51 H20         0.4039    0.8237   -4.9259 H         1 <0>         0.1013
     52 H21         0.0717   -2.3196   -6.9850 H         1 <0>         0.1189
     53 H22         1.8213   -2.4372   -7.3069 H         1 <0>         0.1092
     54 H23         3.2149   -0.5507   -6.6426 H         1 <0>         0.3877
@<TRIPOS>BOND
     1    1    2 1
     2    1   34 1
     3    1   35 1
     4    1   36 1
     5    2    3 1
     6    2    4 1
     7    2   37 1
     8    3   38 1
     9    3   39 1
    10    3   40 1
    11    4   13 ar
    12    4    5 ar
    13    5    6 ar
    14    5   22 1
    15    6    7 ar
    16    6   15 1
    17    7   12 ar
    18    7    8 ar
    19    8    9 ar
    20    8   41 1
    21    9   10 ar
    22    9   14 1
    23   10   11 ar
    24   10   42 1
    25   11   12 ar
    26   11   43 1
    27   12   13 ar
    28   15   20 ar
    29   15   16 ar
    30   16   17 ar
    31   16   44 1
    32   17   18 ar
    33   17   45 1
    34   18   19 ar
    35   18   21 1
    36   19   20 ar
    37   19   46 1
    38   20   47 1
    39   22   23 2
    40   22   48 1
    41   23   24 1
    42   23   49 1
    43   24   25 1
    44   24   32 1
    45   24   26 1
    46   26   27 1
    47   26   50 1
    48   26   51 1
    49   27   28 1
    50   27   29 1
    51   27   33 1
    52   29   30 1
    53   29   52 1
    54   29   53 1
    55   30   31 2
    56   30   32 1
    57   33   54 1
@<TRIPOS>MOLECULE
CHEMBL444210
   77    80     0     0     0
SMALL
USER_CHARGES

@<TRIPOS>ATOM
      1 C1          0.7751   -1.5740    0.4459 C.3       1 <0>        -0.1575
      2 C2         -0.1838   -0.3817    0.4539 C.3       1 <0>        -0.0419
      3 C3          0.2881    0.6591   -0.5634 C.3       1 <0>        -0.1488
      4 C4         -1.5692   -0.8489    0.0887 C.2       1 <0>         0.0919
      5 C5         -2.7078   -0.6648    0.8194 C.2       1 <0>        -0.0643
      6 N1         -3.7298   -1.2319    0.1447 N.2       1 <0>        -0.4458
      7 C6         -3.2708   -1.7553   -0.9661 C.2       1 <0>         0.2464
      8 N2         -1.9243   -1.5288   -1.0338 N.pl3     1 <0>        -0.4357
      9 C7         -1.0284   -1.9443   -2.1159 C.3       1 <0>         0.0844
     10 C8         -0.5370   -3.3690   -1.8524 C.3       1 <0>        -0.1894
     11 C9          0.4109   -3.7973   -2.9745 C.3       1 <0>         0.1173
     12 H1         -0.0885   -3.6807   -3.9363 H         1 <0>         0.1015
     13 C10         0.8041   -5.2628   -2.7784 C.3       1 <0>        -0.1872
     14 C11         1.6504   -5.7271   -3.9655 C.3       1 <0>         0.1384
     15 H2          1.1077   -5.5430   -4.8927 H         1 <0>         0.0937
     16 C12         1.9389   -7.2237   -3.8319 C.3       1 <0>        -0.2198
     17 C13         2.6665   -7.7066   -5.0601 C.2       1 <0>         0.4906
     18 O1          2.9299   -6.9261   -5.9589 O.co2     1 <0>        -0.6810
     19 O2          2.9918   -8.8778   -5.1549 O.co2     1 <0>        -0.7121
     20 O3          2.8829   -5.0041   -3.9834 O.3       1 <0>        -0.5275
     21 O4          1.5837   -2.9814   -2.9447 O.3       1 <0>        -0.5384
     22 C14        -4.0771   -2.4682   -1.9809 C.ar      1 <0>        -0.0225
     23 C15        -3.4498   -3.2593   -2.9441 C.ar      1 <0>        -0.1034
     24 C16        -4.2062   -3.9223   -3.8877 C.ar      1 <0>        -0.1454
     25 C17        -5.5870   -3.8038   -3.8804 C.ar      1 <0>         0.1089
     26 C18        -6.2149   -3.0189   -2.9262 C.ar      1 <0>        -0.1515
     27 C19        -5.4680   -2.3565   -1.9747 C.ar      1 <0>        -0.0511
     28 F1         -6.3235   -4.4552   -4.8069 F         1 <0>        -0.1355
     29 C20        -2.8037    0.0297    2.1155 C.2       1 <0>         0.6100
     30 O5         -1.7947    0.4115    2.6769 O.2       1 <0>        -0.5400
     31 N3         -4.0096    0.2418    2.6788 N.am      1 <0>        -0.7146
     32 C21        -4.1049    0.9322    3.9674 C.3       1 <0>         0.1631
     33 C22        -5.5522    1.0406    4.3734 C.ar      1 <0>        -0.1064
     34 C23        -6.2978    2.1392    3.9850 C.ar      1 <0>        -0.0923
     35 C24        -7.6265    2.2452    4.3541 C.ar      1 <0>        -0.1182
     36 C25        -8.2159    1.2539    5.1126 C.ar      1 <0>        -0.0897
     37 C26        -7.4697    0.1452    5.5065 C.ar      1 <0>        -0.0544
     38 C27        -6.1327    0.0409    5.1270 C.ar      1 <0>        -0.0803
     39 C28        -8.0977   -0.9234    6.3220 C.ar      1 <0>        -0.0798
     40 C29        -7.9685   -2.2585    5.9446 C.ar      1 <0>        -0.0778
     41 C30        -8.5547   -3.2486    6.7065 C.ar      1 <0>        -0.1273
     42 C31        -9.2700   -2.9190    7.8440 C.ar      1 <0>        -0.0891
     43 C32        -9.4027   -1.5967    8.2251 C.ar      1 <0>        -0.1536
     44 C33        -8.8152   -0.5960    7.4730 C.ar      1 <0>         0.1083
     45 F2         -8.9402    0.6957    7.8487 F         1 <0>        -0.1340
     46 H3          1.7336   -1.2722    0.8682 H         1 <0>         0.0692
     47 H4          0.3538   -2.3830    1.0426 H         1 <0>         0.0571
     48 H5          0.9210   -1.9161   -0.5787 H         1 <0>         0.0634
     49 H6         -0.2010    0.0640    1.4484 H         1 <0>         0.1274
     50 H7          0.2177    0.2428   -1.5684 H         1 <0>         0.0549
     51 H8         -0.3403    1.5469   -0.4930 H         1 <0>         0.0582
     52 H9          1.3232    0.9289   -0.3537 H         1 <0>         0.0695
     53 H10        -1.5655   -1.9146   -3.0639 H         1 <0>         0.1034
     54 H11        -0.1747   -1.2680   -2.1606 H         1 <0>         0.1158
     55 H12        -0.0094   -3.4010   -0.8991 H         1 <0>         0.0879
     56 H13        -1.3898   -4.0471   -1.8186 H         1 <0>         0.0861
     57 H14         1.3810   -5.3644   -1.8591 H         1 <0>         0.0652
     58 H15        -0.0956   -5.8747   -2.7122 H         1 <0>         0.0757
     59 H16         2.5575   -7.3973   -2.9514 H         1 <0>         0.0566
     60 H17         0.9996   -7.7670   -3.7289 H         1 <0>         0.0611
     61 H18         3.4193   -5.1214   -3.1874 H         1 <0>         0.3506
     62 H19         2.0794   -3.0354   -2.1162 H         1 <0>         0.3672
     63 H20        -2.3738   -3.3520   -2.9508 H         1 <0>         0.1497
     64 H21        -3.7216   -4.5345   -4.6338 H         1 <0>         0.1449
     65 H22        -7.2912   -2.9296   -2.9250 H         1 <0>         0.1415
     66 H23        -5.9585   -1.7487   -1.2287 H         1 <0>         0.1447
     67 H24        -4.8144   -0.0627    2.2310 H         1 <0>         0.4098
     68 H25        -3.5568    0.3691    4.7227 H         1 <0>         0.0779
     69 H26        -3.6772    1.9307    3.8771 H         1 <0>         0.0789
     70 H27        -5.8406    2.9173    3.3918 H         1 <0>         0.1268
     71 H28        -8.2039    3.1052    4.0485 H         1 <0>         0.1280
     72 H29        -9.2534    1.3378    5.4006 H         1 <0>         0.1234
     73 H30        -5.5509   -0.8185    5.4259 H         1 <0>         0.1272
     74 H31        -7.4109   -2.5180    5.0568 H         1 <0>         0.1353
     75 H32        -8.4550   -4.2834    6.4139 H         1 <0>         0.1330
     76 H33        -9.7270   -3.6979    8.4364 H         1 <0>         0.1339
     77 H34        -9.9623   -1.3452    9.1140 H         1 <0>         0.1370
@<TRIPOS>BOND
     1    1    2 1
     2    1   46 1
     3    1   47 1
     4    1   48 1
     5    2    3 1
     6    2    4 1
     7    2   49 1
     8    3   50 1
     9    3   51 1
    10    3   52 1
    11    4    8 1
    12    4    5 2
    13    5    6 1
    14    5   29 1
    15    6    7 2
    16    7    8 1
    17    7   22 1
    18    8    9 1
    19    9   10 1
    20    9   53 1
    21    9   54 1
    22   10   11 1
    23   10   55 1
    24   10   56 1
    25   11   12 1
    26   11   13 1
    27   11   21 1
    28   13   14 1
    29   13   57 1
    30   13   58 1
    31   14   15 1
    32   14   16 1
    33   14   20 1
    34   16   17 1
    35   16   59 1
    36   16   60 1
    37   17   18 2
    38   17   19 1
    39   20   61 1
    40   21   62 1
    41   22   27 ar
    42   22   23 ar
    43   23   24 ar
    44   23   63 1
    45   24   25 ar
    46   24   64 1
    47   25   26 ar
    48   25   28 1
    49   26   27 ar
    50   26   65 1
    51   27   66 1
    52   29   30 2
    53   29   31 am
    54   31   32 1
    55   31   67 1
    56   32   33 1
    57   32   68 1
    58   32   69 1
    59   33   38 ar
    60   33   34 ar
    61   34   35 ar
    62   34   70 1
    63   35   36 ar
    64   35   71 1
    65   36   37 ar
    66   36   72 1
    67   37   38 ar
    68   37   39 1
    69   38   73 1
    70   39   44 ar
    71   39   40 ar
    72   40   41 ar
    73   40   74 1
    74   41   42 ar
    75   41   75 1
    76   42   43 ar
    77   42   76 1
    78   43   44 ar
    79   43   77 1
    80   44   45 1
@<TRIPOS>MOLECULE
CHEMBL159951
   67    69     0     0     0
SMALL
USER_CHARGES

@<TRIPOS>ATOM
      1 C1          0.9302   -1.2780    0.1141 C.3       1 <0>        -0.1524
      2 C2         -0.0177   -0.0831   -0.0071 C.3       1 <0>        -0.0286
      3 C3          0.3419    0.7287   -1.2531 C.3       1 <0>        -0.1524
      4 C4         -1.4367   -0.5773   -0.1218 C.2       1 <0>         0.0303
      5 C5         -2.4414   -0.2871    0.7260 C.2       1 <0>        -0.1347
      6 C6         -3.6002   -0.9529    0.2518 C.2       1 <0>        -0.1315
      7 C7         -3.2422   -1.6248   -0.8752 C.2       1 <0>         0.0075
      8 N1         -1.9207   -1.3893   -1.1054 N.pl3     1 <0>        -0.4310
      9 C8         -1.1435   -1.9247   -2.2259 C.3       1 <0>         0.1272
     10 C9         -1.7545   -1.4470   -3.5448 C.3       1 <0>        -0.1287
     11 C10        -0.9428   -2.0062   -4.7150 C.3       1 <0>        -0.1170
     12 C11        -0.9654   -3.5353   -4.6668 C.3       1 <0>        -0.1231
     13 C12        -0.3544   -4.0130   -3.3479 C.3       1 <0>        -0.1169
     14 C13        -1.1661   -3.4538   -2.1777 C.3       1 <0>        -0.1287
     15 C14        -4.9495   -0.9227    0.8695 C.ar      1 <0>        -0.0046
     16 C15        -5.1007   -1.1782    2.2308 C.ar      1 <0>        -0.0814
     17 C16        -6.3570   -1.1491    2.8009 C.ar      1 <0>        -0.1491
     18 C17        -7.4670   -0.8663    2.0218 C.ar      1 <0>         0.0878
     19 C18        -7.3213   -0.6116    0.6679 C.ar      1 <0>        -0.1516
     20 C19        -6.0680   -0.6330    0.0907 C.ar      1 <0>        -0.0882
     21 F1         -8.6952   -0.8393    2.5839 F         1 <0>        -0.1432
     22 C20        -2.3510    0.5836    1.9526 C.3       1 <0>        -0.0456
     23 C21        -2.5737    2.0450    1.5582 C.3       1 <0>        -0.1397
     24 C22        -2.3904    2.9385    2.7866 C.3       1 <0>         0.1126
     25 H1         -3.0501    2.5984    3.5849 H         1 <0>         0.0943
     26 C23        -2.7343    4.3840    2.4219 C.3       1 <0>        -0.1862
     27 C24        -2.6719    5.2556    3.6778 C.3       1 <0>         0.1376
     28 H2         -3.3218    4.8345    4.4449 H         1 <0>         0.0919
     29 C25        -3.1360    6.6734    3.3382 C.3       1 <0>        -0.2194
     30 C26        -3.1918    7.4989    4.5978 C.2       1 <0>         0.4905
     31 O1         -2.8885    6.9995    5.6679 O.co2     1 <0>        -0.6811
     32 O2         -3.5403    8.6661    4.5467 O.co2     1 <0>        -0.7142
     33 O3         -1.3282    5.2974    4.1622 O.3       1 <0>        -0.5279
     34 O4         -1.0331    2.8687    3.2282 O.3       1 <0>        -0.5421
     35 H3          1.9619   -0.9271    0.0908 H         1 <0>         0.0606
     36 H4          0.7438   -1.7957    1.0550 H         1 <0>         0.0596
     37 H5          0.7603   -1.9624   -0.7170 H         1 <0>         0.0523
     38 H6          0.0772    0.5471    0.8771 H         1 <0>         0.0969
     39 H7          0.1482    0.1316   -2.1442 H         1 <0>         0.0524
     40 H8         -0.2638    1.6344   -1.2839 H         1 <0>         0.0597
     41 H9          1.3974    0.9985   -1.2189 H         1 <0>         0.0608
     42 H10        -3.8932   -2.2350   -1.4838 H         1 <0>         0.1569
     43 H11        -0.1139   -1.5741   -2.1544 H         1 <0>         0.1086
     44 H12        -2.7841   -1.7976   -3.6163 H         1 <0>         0.0702
     45 H13        -1.7384   -0.3577   -3.5791 H         1 <0>         0.0708
     46 H14        -1.3781   -1.6659   -5.6546 H         1 <0>         0.0694
     47 H15         0.0867   -1.6556   -4.6434 H         1 <0>         0.0650
     48 H16        -1.9950   -3.8859   -4.7383 H         1 <0>         0.0639
     49 H17        -0.3872   -3.9336   -5.5004 H         1 <0>         0.0658
     50 H18        -0.3705   -5.1023   -3.3136 H         1 <0>         0.0691
     51 H19         0.6752   -3.6624   -3.2764 H         1 <0>         0.0649
     52 H20        -0.7308   -3.7942   -1.2381 H         1 <0>         0.0705
     53 H21        -2.1957   -3.8044   -2.2492 H         1 <0>         0.0703
     54 H22        -4.2359   -1.3992    2.8388 H         1 <0>         0.1330
     55 H23        -6.4751   -1.3475    3.8559 H         1 <0>         0.1344
     56 H24        -8.1894   -0.3919    0.0641 H         1 <0>         0.1322
     57 H25        -5.9548   -0.4299   -0.9639 H         1 <0>         0.1284
     58 H26        -3.1135    0.2807    2.6702 H         1 <0>         0.0672
     59 H27        -1.3645    0.4752    2.4033 H         1 <0>         0.0726
     60 H28        -1.8522    2.3285    0.7919 H         1 <0>         0.0594
     61 H29        -3.5843    2.1662    1.1683 H         1 <0>         0.0663
     62 H30        -2.0188    4.7534    1.6873 H         1 <0>         0.0603
     63 H31        -3.7394    4.4234    2.0018 H         1 <0>         0.0718
     64 H32        -2.4352    7.1270    2.6373 H         1 <0>         0.0554
     65 H33        -4.1270    6.6328    2.8861 H         1 <0>         0.0604
     66 H34        -0.6934    5.6617    3.5302 H         1 <0>         0.3489
     67 H35        -0.3891    3.1570    2.5670 H         1 <0>         0.3619
@<TRIPOS>BOND
     1    1    2 1
     2    1   35 1
     3    1   36 1
     4    1   37 1
     5    2    3 1
     6    2    4 1
     7    2   38 1
     8    3   39 1
     9    3   40 1
    10    3   41 1
    11    4    8 1
    12    4    5 2
    13    5    6 1
    14    5   22 1
    15    6    7 2
    16    6   15 1
    17    7    8 1
    18    7   42 1
    19    8    9 1
    20    9   14 1
    21    9   10 1
    22    9   43 1
    23   10   11 1
    24   10   44 1
    25   10   45 1
    26   11   12 1
    27   11   46 1
    28   11   47 1
    29   12   13 1
    30   12   48 1
    31   12   49 1
    32   13   14 1
    33   13   50 1
    34   13   51 1
    35   14   52 1
    36   14   53 1
    37   15   20 ar
    38   15   16 ar
    39   16   17 ar
    40   16   54 1
    41   17   18 ar
    42   17   55 1
    43   18   19 ar
    44   18   21 1
    45   19   20 ar
    46   19   56 1
    47   20   57 1
    48   22   23 1
    49   22   58 1
    50   22   59 1
    51   23   24 1
    52   23   60 1
    53   23   61 1
    54   24   25 1
    55   24   26 1
    56   24   34 1
    57   26   27 1
    58   26   62 1
    59   26   63 1
    60   27   28 1
    61   27   29 1
    62   27   33 1
    63   29   30 1
    64   29   64 1
    65   29   65 1
    66   30   31 2
    67   30   32 1
    68   33   66 1
    69   34   67 1
@<TRIPOS>MOLECULE
CHEMBL331900
   68    72     0     0     0
SMALL
USER_CHARGES

@<TRIPOS>ATOM
      1 C1         -0.0164    1.3567    0.0095 C.ar      1 <0>        -0.1235
      2 C2          1.1685    2.0906    0.0021 C.ar      1 <0>        -0.1190
      3 C3          2.3785    1.4679   -0.0132 C.ar      1 <0>        -0.1099
      4 C4          2.4378    0.0637   -0.0214 C.ar      1 <0>        -0.0392
      5 C5          1.2328   -0.6827   -0.0134 C.ar      1 <0>        -0.0553
      6 C6          0.0021   -0.0041    0.0020 C.ar      1 <0>        -0.1051
      7 C7          1.2920   -2.0865   -0.0210 C.ar      1 <0>        -0.1126
      8 C8          2.5022   -2.7094   -0.0359 C.ar      1 <0>        -0.1096
      9 C9          3.6867   -1.9757   -0.0433 C.ar      1 <0>        -0.0621
     10 C10         3.6681   -0.6146   -0.0367 C.ar      1 <0>        -0.0746
     11 C11         4.9603    0.1606   -0.0459 C.3       1 <0>        -0.0722
     12 C12         5.3473    0.5240    1.3890 C.3       1 <0>         0.0009
     13 C13         6.6106    1.3932    1.3797 C.3       1 <0>        -0.1130
     14 C14         7.1350    1.5590    2.8078 C.3       1 <0>        -0.1176
     15 C15         7.7400    0.2354    3.2926 C.3       1 <0>        -0.0399
     16 C16         6.7380   -0.8624    3.0365 C.2       1 <0>        -0.2110
     17 C17         5.6447   -0.7337    2.1705 C.2       1 <0>         0.0896
     18 N1          4.9757   -1.8525    2.1746 N.2       1 <0>        -0.2618
     19 N2          5.6094   -2.7537    3.0424 N.pl3     1 <0>        -0.3301
     20 C18         6.7050   -2.1249    3.5717 C.2       1 <0>         0.1235
     21 C19         7.6642   -2.6952    4.5323 C.2       1 <0>        -0.1190
     22 C20         7.2248   -3.2914    5.6355 C.2       1 <0>        -0.1413
     23 C21         8.2065   -3.8751    6.6186 C.3       1 <0>         0.1414
     24 H1          8.0830   -4.9574    6.6563 H         1 <0>         0.1130
     25 C22         7.9510   -3.2839    8.0065 C.3       1 <0>        -0.1814
     26 C23         8.8631   -3.9669    9.0275 C.3       1 <0>         0.1380
     27 H2          8.7167   -5.0460    8.9811 H         1 <0>         0.0940
     28 C24         8.5214   -3.4658   10.4322 C.3       1 <0>        -0.2196
     29 C25         9.3334   -4.2268   11.4484 C.2       1 <0>         0.4908
     30 O1         10.1133   -5.0898   11.0830 O.co2     1 <0>        -0.6810
     31 O2          9.2106   -3.9793   12.6359 O.co2     1 <0>        -0.7125
     32 O3         10.2263   -3.6579    8.7302 O.3       1 <0>        -0.5277
     33 O4          9.5380   -3.5617    6.2052 O.3       1 <0>        -0.5366
     34 C26         5.1955   -4.0635    3.3188 C.ar      1 <0>         0.1501
     35 C27         6.1383   -5.0560    3.5521 C.ar      1 <0>        -0.0965
     36 C28         5.7283   -6.3461    3.8248 C.ar      1 <0>        -0.1301
     37 C29         4.3778   -6.6505    3.8657 C.ar      1 <0>         0.0968
     38 C30         3.4360   -5.6622    3.6329 C.ar      1 <0>        -0.1363
     39 C31         3.8418   -4.3696    3.3655 C.ar      1 <0>        -0.0847
     40 F1          3.9787   -7.9133    4.1327 F         1 <0>        -0.1349
     41 H3         -0.9634    1.8756    0.0259 H         1 <0>         0.1192
     42 H4          1.1258    3.1698    0.0084 H         1 <0>         0.1198
     43 H5          3.2883    2.0497   -0.0195 H         1 <0>         0.1260
     44 H6         -0.9241   -0.5595    0.0082 H         1 <0>         0.1229
     45 H7          0.3820   -2.6682   -0.0147 H         1 <0>         0.1213
     46 H8          2.5450   -3.7886   -0.0417 H         1 <0>         0.1167
     47 H9          4.6338   -2.4947   -0.0548 H         1 <0>         0.1163
     48 H10         5.7467   -0.4491   -0.4909 H         1 <0>         0.0751
     49 H11         4.8331    1.0722   -0.6299 H         1 <0>         0.0809
     50 H12         4.5301    1.0672    1.8637 H         1 <0>         0.0907
     51 H13         7.3746    0.9158    0.7662 H         1 <0>         0.0698
     52 H14         6.3735    2.3728    0.9646 H         1 <0>         0.0725
     53 H15         7.8998    2.3354    2.8255 H         1 <0>         0.0699
     54 H16         6.3137    1.8447    3.4649 H         1 <0>         0.0642
     55 H17         8.6596    0.0290    2.7451 H         1 <0>         0.0717
     56 H18         7.9527    0.2974    4.3599 H         1 <0>         0.0720
     57 H19         8.7249   -2.6289    4.3402 H         1 <0>         0.1463
     58 H20         6.1641   -3.3577    5.8276 H         1 <0>         0.1132
     59 H21         8.1606   -2.2144    7.9901 H         1 <0>         0.0657
     60 H22         6.9095   -3.4458    8.2842 H         1 <0>         0.0755
     61 H23         8.7520   -2.4030   10.5050 H         1 <0>         0.0568
     62 H24         7.4599   -3.6214   10.6252 H         1 <0>         0.0611
     63 H25        10.4294   -2.7128    8.7533 H         1 <0>         0.3506
     64 H26         9.7197   -2.6136    6.1494 H         1 <0>         0.3679
     65 H27         7.1915   -4.8191    3.5200 H         1 <0>         0.1437
     66 H28         6.4612   -7.1184    4.0060 H         1 <0>         0.1468
     67 H29         2.3834   -5.9016    3.6649 H         1 <0>         0.1429
     68 H30         3.1070   -3.5981    3.1888 H         1 <0>         0.1407
@<TRIPOS>BOND
     1    1    6 ar
     2    1    2 ar
     3    1   41 1
     4    2    3 ar
     5    2   42 1
     6    3    4 ar
     7    3   43 1
     8    4   10 ar
     9    4    5 ar
    10    5    6 ar
    11    5    7 ar
    12    6   44 1
    13    7    8 ar
    14    7   45 1
    15    8    9 ar
    16    8   46 1
    17    9   10 ar
    18    9   47 1
    19   10   11 1
    20   11   12 1
    21   11   48 1
    22   11   49 1
    23   12   17 1
    24   12   13 1
    25   12   50 1
    26   13   14 1
    27   13   51 1
    28   13   52 1
    29   14   15 1
    30   14   53 1
    31   14   54 1
    32   15   16 1
    33   15   55 1
    34   15   56 1
    35   16   20 2
    36   16   17 1
    37   17   18 2
    38   18   19 1
    39   19   20 1
    40   19   34 1
    41   20   21 1
    42   21   22 2
    43   21   57 1
    44   22   23 1
    45   22   58 1
    46   23   24 1
    47   23   25 1
    48   23   33 1
    49   25   26 1
    50   25   59 1
    51   25   60 1
    52   26   27 1
    53   26   28 1
    54   26   32 1
    55   28   29 1
    56   28   61 1
    57   28   62 1
    58   29   30 2
    59   29   31 1
    60   32   63 1
    61   33   64 1
    62   34   39 ar
    63   34   35 ar
    64   35   36 ar
    65   35   65 1
    66   36   37 ar
    67   36   66 1
    68   37   38 ar
    69   37   40 1
    70   38   39 ar
    71   38   67 1
    72   39   68 1
@<TRIPOS>MOLECULE
CHEMBL331900__1
   68    72     0     0     0
SMALL
USER_CHARGES

@<TRIPOS>ATOM
      1 C1          5.7179   -5.2754    1.5365 C.ar      1 <0>        -0.1158
      2 C2          4.7589   -4.3282    1.8913 C.ar      1 <0>        -0.1186
      3 C3          4.8137   -3.0589    1.4036 C.ar      1 <0>        -0.1042
      4 C4          5.8518   -2.6941    0.5292 C.ar      1 <0>        -0.0456
      5 C5          6.8274   -3.6572    0.1688 C.ar      1 <0>        -0.0500
      6 C6          6.7373   -4.9584    0.6924 C.ar      1 <0>        -0.1094
      7 C7          7.8654   -3.2925   -0.7049 C.ar      1 <0>        -0.1128
      8 C8          7.9206   -2.0227   -1.1924 C.ar      1 <0>        -0.1113
      9 C9          6.9619   -1.0759   -0.8377 C.ar      1 <0>        -0.1141
     10 C10         5.9418   -1.3933    0.0058 C.ar      1 <0>        -0.0621
     11 C11         4.9143   -0.3550    0.3764 C.3       1 <0>        -0.0738
     12 C12         5.2632    0.2436    1.7405 C.3       1 <0>         0.0042
     13 C13         6.5716    1.0368    1.6378 C.3       1 <0>        -0.1118
     14 C14         6.7986    1.8293    2.9271 C.3       1 <0>        -0.1176
     15 C15         5.8009    2.9920    3.0011 C.3       1 <0>        -0.0396
     16 C16         4.4186    2.4435    2.7492 C.2       1 <0>        -0.2111
     17 C17         4.1697    1.1900    2.1762 C.2       1 <0>         0.0916
     18 N1          2.8802    1.0158    2.0985 N.2       1 <0>        -0.2791
     19 N2          2.2398    2.1510    2.6163 N.pl3     1 <0>        -0.3289
     20 C18         3.2089    3.0318    3.0173 C.2       1 <0>         0.1276
     21 C19         2.9933    4.3573    3.6211 C.2       1 <0>        -0.1184
     22 C20         2.1642    5.2222    3.0466 C.2       1 <0>        -0.1405
     23 C21         1.9436    6.5788    3.6646 C.3       1 <0>         0.1415
     24 H1          0.9084    6.6633    3.9955 H         1 <0>         0.1129
     25 C22         2.2381    7.6653    2.6284 C.3       1 <0>        -0.1814
     26 C23         1.8951    9.0361    3.2152 C.3       1 <0>         0.1378
     27 H2          0.8617    9.0347    3.5618 H         1 <0>         0.0940
     28 C24         2.0708   10.1098    2.1395 C.3       1 <0>        -0.2195
     29 C25         1.6165   11.4412    2.6798 C.2       1 <0>         0.4907
     30 O1          1.1915   11.5237    3.8196 O.co2     1 <0>        -0.6809
     31 O2          1.6738   12.4359    1.9771 O.co2     1 <0>        -0.7125
     32 O3          2.7655    9.3153    4.3136 O.3       1 <0>        -0.5278
     33 O4          2.8163    6.7397    4.7847 O.3       1 <0>        -0.5366
     34 C26         0.8556    2.3488    2.7070 C.ar      1 <0>         0.1452
     35 C27         0.3061    2.9011    3.8564 C.ar      1 <0>        -0.0878
     36 C28        -1.0583    3.0957    3.9436 C.ar      1 <0>        -0.1320
     37 C29        -1.8784    2.7405    2.8857 C.ar      1 <0>         0.1014
     38 C30        -1.3323    2.1891    1.7386 C.ar      1 <0>        -0.1377
     39 C31         0.0322    1.9982    1.6453 C.ar      1 <0>        -0.0822
     40 F1         -3.2130    2.9316    2.9729 F         1 <0>        -0.1339
     41 H3          5.6536   -6.2747    1.9410 H         1 <0>         0.1212
     42 H4          3.9601   -4.6059    2.5631 H         1 <0>         0.1216
     43 H5          4.0632   -2.3357    1.6868 H         1 <0>         0.1297
     44 H6          7.4733   -5.7027    0.4267 H         1 <0>         0.1251
     45 H7          8.6159   -4.0157   -0.9881 H         1 <0>         0.1246
     46 H8          8.7196   -1.7449   -1.8639 H         1 <0>         0.1224
     47 H9          7.0289   -0.0752   -1.2384 H         1 <0>         0.1232
     48 H10         4.9075    0.4340   -0.3756 H         1 <0>         0.0771
     49 H11         3.9294   -0.8195    0.4246 H         1 <0>         0.0835
     50 H12         5.3730   -0.5544    2.4749 H         1 <0>         0.0912
     51 H13         7.4022    0.3477    1.4849 H         1 <0>         0.0732
     52 H14         6.5129    1.7252    0.7948 H         1 <0>         0.0685
     53 H15         6.6557    1.1735    3.7860 H         1 <0>         0.0639
     54 H16         7.8152    2.2225    2.9370 H         1 <0>         0.0695
     55 H17         5.8408    3.4485    3.9901 H         1 <0>         0.0725
     56 H18         6.0455    3.7353    2.2422 H         1 <0>         0.0717
     57 H19         3.5090    4.6265    4.5311 H         1 <0>         0.1466
     58 H20         1.6485    4.9530    2.1367 H         1 <0>         0.1130
     59 H21         3.2950    7.6377    2.3634 H         1 <0>         0.0658
     60 H22         1.6353    7.4905    1.7373 H         1 <0>         0.0755
     61 H23         3.1216   10.1720    1.8565 H         1 <0>         0.0569
     62 H24         1.4739    9.8495    1.2654 H         1 <0>         0.0612
     63 H25         3.7032    9.3323    4.0780 H         1 <0>         0.3506
     64 H26         3.7556    6.6761    4.5637 H         1 <0>         0.3678
     65 H27         0.9452    3.1779    4.6818 H         1 <0>         0.1416
     66 H28        -1.4862    3.5249    4.8376 H         1 <0>         0.1475
     67 H29        -1.9736    1.9124    0.9148 H         1 <0>         0.1445
     68 H30         0.4582    1.5727    0.7487 H         1 <0>         0.1403
@<TRIPOS>BOND
     1    1    6 ar
     2    1    2 ar
     3    1   41 1
     4    2    3 ar
     5    2   42 1
     6    3    4 ar
     7    3   43 1
     8    4   10 ar
     9    4    5 ar
    10    5    6 ar
    11    5    7 ar
    12    6   44 1
    13    7    8 ar
    14    7   45 1
    15    8    9 ar
    16    8   46 1
    17    9   10 ar
    18    9   47 1
    19   10   11 1
    20   11   12 1
    21   11   48 1
    22   11   49 1
    23   12   17 1
    24   12   13 1
    25   12   50 1
    26   13   14 1
    27   13   51 1
    28   13   52 1
    29   14   15 1
    30   14   53 1
    31   14   54 1
    32   15   16 1
    33   15   55 1
    34   15   56 1
    35   16   20 2
    36   16   17 1
    37   17   18 2
    38   18   19 1
    39   19   20 1
    40   19   34 1
    41   20   21 1
    42   21   22 2
    43   21   57 1
    44   22   23 1
    45   22   58 1
    46   23   24 1
    47   23   25 1
    48   23   33 1
    49   25   26 1
    50   25   59 1
    51   25   60 1
    52   26   27 1
    53   26   28 1
    54   26   32 1
    55   28   29 1
    56   28   61 1
    57   28   62 1
    58   29   30 2
    59   29   31 1
    60   32   63 1
    61   33   64 1
    62   34   39 ar
    63   34   35 ar
    64   35   36 ar
    65   35   65 1
    66   36   37 ar
    67   36   66 1
    68   37   38 ar
    69   37   40 1
    70   38   39 ar
    71   38   67 1
    72   39   68 1
@<TRIPOS>MOLECULE
CHEMBL346446
   56    58     0     0     0
SMALL
USER_CHARGES

@<TRIPOS>ATOM
      1 C1         -0.0187    1.5258    0.0104 C.3       1 <0>        -0.1420
      2 C2          0.0021   -0.0041    0.0020 C.3       1 <0>        -0.0481
      3 C3          0.7421   -0.5109    1.2415 C.3       1 <0>        -0.1397
      4 C4         -1.4117   -0.5257    0.0127 C.ar      1 <0>         0.2042
      5 C5         -1.8769   -1.3352   -1.0273 C.ar      1 <0>        -0.1598
      6 C6         -3.2086   -1.7941   -0.9642 C.ar      1 <0>         0.2304
      7 N1         -3.9588   -1.4384    0.0760 N.ar      1 <0>        -0.5053
      8 C7         -3.4708   -0.6732    1.0296 C.ar      1 <0>         0.3344
      9 N2         -2.2289   -0.2288    1.0087 N.ar      1 <0>        -0.5107
     10 C8         -4.3591   -0.2972    2.1874 C.3       1 <0>        -0.0265
     11 C9         -5.5789    0.4661    1.6675 C.3       1 <0>        -0.1414
     12 C10        -4.8203   -1.5650    2.9091 C.3       1 <0>        -0.1408
     13 C11        -3.7619   -2.6546   -2.0347 C.ar      1 <0>        -0.0718
     14 C12        -3.3629   -2.4685   -3.3584 C.ar      1 <0>        -0.0556
     15 C13        -3.8811   -3.2725   -4.3519 C.ar      1 <0>        -0.1590
     16 C14        -4.7972   -4.2637   -4.0371 C.ar      1 <0>         0.1200
     17 C15        -5.1968   -4.4524   -2.7235 C.ar      1 <0>        -0.1607
     18 C16        -4.6796   -3.6577   -1.7220 C.ar      1 <0>        -0.0442
     19 F1         -5.3028   -5.0481   -5.0139 F         1 <0>        -0.1346
     20 C17        -1.0004   -1.6986   -2.1583 C.2       1 <0>        -0.0896
     21 C18        -0.8892   -2.9673   -2.5304 C.2       1 <0>        -0.1416
     22 C19         0.0056   -3.3382   -3.6849 C.3       1 <0>         0.1443
     23 C20         1.0143   -4.3964   -3.2303 C.3       1 <0>        -0.1478
     24 C21         1.9486   -4.7407   -4.3947 C.3       1 <0>         0.1043
     25 H1          2.6765   -5.4846   -4.0711 H         1 <0>         0.0821
     26 C22         2.6786   -3.4665   -4.8383 C.3       1 <0>        -0.2047
     27 C23         1.6455   -2.3889   -5.0850 C.2       1 <0>         0.4980
     28 O1          1.6578   -1.7374   -6.1025 O.2       1 <0>        -0.4486
     29 O2          0.7104   -2.1762   -4.1360 O.3       1 <0>        -0.3698
     30 O3          1.1841   -5.2611   -5.4841 O.3       1 <0>        -0.5633
     31 H2          1.0039    1.9031    0.0027 H         1 <0>         0.0653
     32 H3         -0.5459    1.8868   -0.8726 H         1 <0>         0.0536
     33 H4         -0.5289    1.8773    0.9072 H         1 <0>         0.0673
     34 H5          0.5123   -0.3556   -0.8948 H         1 <0>         0.0927
     35 H6          1.7647   -0.1336    1.2338 H         1 <0>         0.0648
     36 H7          0.2319   -0.1594    2.1383 H         1 <0>         0.0671
     37 H8          0.7568   -1.6008    1.2356 H         1 <0>         0.0524
     38 H9         -3.8040    0.3342    2.8812 H         1 <0>         0.0968
     39 H10        -6.1340   -0.1654    0.9738 H         1 <0>         0.0668
     40 H11        -6.2214    0.7380    2.5050 H         1 <0>         0.0670
     41 H12        -5.2504    1.3693    1.1534 H         1 <0>         0.0530
     42 H13        -5.3754   -2.1964    2.2154 H         1 <0>         0.0662
     43 H14        -3.9512   -2.1088    3.2795 H         1 <0>         0.0529
     44 H15        -5.4628   -1.2931    3.7466 H         1 <0>         0.0671
     45 H16        -2.6496   -1.6959   -3.6049 H         1 <0>         0.1413
     46 H17        -3.5728   -3.1292   -5.3770 H         1 <0>         0.1412
     47 H18        -5.9109   -5.2261   -2.4830 H         1 <0>         0.1413
     48 H19        -4.9879   -3.8086   -0.6980 H         1 <0>         0.1400
     49 H20        -0.4497   -0.9317   -2.6827 H         1 <0>         0.1416
     50 H21        -1.4399   -3.7341   -2.0060 H         1 <0>         0.1345
     51 H22        -0.5984   -3.7367   -4.5000 H         1 <0>         0.0994
     52 H23         1.5996   -4.0068   -2.3974 H         1 <0>         0.0983
     53 H24         0.4824   -5.2934   -2.9134 H         1 <0>         0.1004
     54 H25         3.3652   -3.1448   -4.0552 H         1 <0>         0.1197
     55 H26         3.2328   -3.6613   -5.7565 H         1 <0>         0.1094
     56 H27         1.7135   -5.5007   -6.2571 H         1 <0>         0.3876
@<TRIPOS>BOND
     1    1    2 1
     2    1   31 1
     3    1   32 1
     4    1   33 1
     5    2    3 1
     6    2    4 1
     7    2   34 1
     8    3   35 1
     9    3   36 1
    10    3   37 1
    11    4    9 ar
    12    4    5 ar
    13    5    6 ar
    14    5   20 1
    15    6    7 ar
    16    6   13 1
    17    7    8 ar
    18    8    9 ar
    19    8   10 1
    20   10   11 1
    21   10   12 1
    22   10   38 1
    23   11   39 1
    24   11   40 1
    25   11   41 1
    26   12   42 1
    27   12   43 1
    28   12   44 1
    29   13   18 ar
    30   13   14 ar
    31   14   15 ar
    32   14   45 1
    33   15   16 ar
    34   15   46 1
    35   16   17 ar
    36   16   19 1
    37   17   18 ar
    38   17   47 1
    39   18   48 1
    40   20   21 2
    41   20   49 1
    42   21   22 1
    43   21   50 1
    44   22   29 1
    45   22   23 1
    46   22   51 1
    47   23   24 1
    48   23   52 1
    49   23   53 1
    50   24   25 1
    51   24   26 1
    52   24   30 1
    53   26   27 1
    54   26   54 1
    55   26   55 1
    56   27   28 2
    57   27   29 1
    58   30   56 1
@<TRIPOS>MOLECULE
CHEMBL346446__1
   56    58     0     0     0
SMALL
USER_CHARGES

@<TRIPOS>ATOM
      1 C1         -0.0187    1.5258    0.0104 C.3       1 <0>        -0.1426
      2 C2          0.0021   -0.0041    0.0020 C.3       1 <0>        -0.0474
      3 C3          0.7421   -0.5109    1.2415 C.3       1 <0>        -0.1411
      4 C4         -1.4117   -0.5257    0.0127 C.ar      1 <0>         0.2065
      5 C5         -1.8769   -1.3352   -1.0273 C.ar      1 <0>        -0.1667
      6 C6         -3.2086   -1.7941   -0.9642 C.ar      1 <0>         0.2392
      7 N1         -3.9588   -1.4384    0.0760 N.ar      1 <0>        -0.5061
      8 C7         -3.4708   -0.6732    1.0296 C.ar      1 <0>         0.3387
      9 N2         -2.2289   -0.2288    1.0087 N.ar      1 <0>        -0.5124
     10 C8         -4.3591   -0.2972    2.1874 C.3       1 <0>        -0.0271
     11 C9         -5.5789    0.4661    1.6675 C.3       1 <0>        -0.1415
     12 C10        -4.8203   -1.5650    2.9091 C.3       1 <0>        -0.1412
     13 C11        -3.7619   -2.6546   -2.0347 C.ar      1 <0>        -0.0774
     14 C12        -3.3629   -2.4685   -3.3584 C.ar      1 <0>        -0.0495
     15 C13        -3.8811   -3.2725   -4.3519 C.ar      1 <0>        -0.1430
     16 C14        -4.7972   -4.2637   -4.0371 C.ar      1 <0>         0.1192
     17 C15        -5.1968   -4.4524   -2.7235 C.ar      1 <0>        -0.1616
     18 C16        -4.6796   -3.6577   -1.7220 C.ar      1 <0>        -0.0456
     19 F1         -5.3028   -5.0481   -5.0139 F         1 <0>        -0.1355
     20 C17        -1.0004   -1.6986   -2.1583 C.2       1 <0>        -0.0852
     21 C18        -0.8892   -2.9673   -2.5304 C.2       1 <0>        -0.1284
     22 C19         0.0056   -3.3382   -3.6849 C.3       1 <0>         0.1438
     23 C20         1.0861   -4.3097   -3.2026 C.3       1 <0>        -0.1517
     24 C21         1.9684   -4.7167   -4.3871 C.3       1 <0>         0.1101
     25 H1          2.4447   -3.8316   -4.8087 H         1 <0>         0.0686
     26 C22         1.0904   -5.3848   -5.4529 C.3       1 <0>        -0.2057
     27 C23        -0.0753   -4.4675   -5.7509 C.2       1 <0>         0.4920
     28 O1         -0.3737   -4.1912   -6.8887 O.2       1 <0>        -0.4446
     29 O2         -0.7721   -3.9670   -4.7097 O.3       1 <0>        -0.3582
     30 O3          2.9703   -5.6346   -3.9445 O.3       1 <0>        -0.5547
     31 H2          1.0039    1.9031    0.0027 H         1 <0>         0.0659
     32 H3         -0.5459    1.8868   -0.8726 H         1 <0>         0.0535
     33 H4         -0.5289    1.8773    0.9072 H         1 <0>         0.0682
     34 H5          0.5123   -0.3556   -0.8948 H         1 <0>         0.0903
     35 H6          1.7647   -0.1336    1.2338 H         1 <0>         0.0657
     36 H7          0.2319   -0.1594    2.1383 H         1 <0>         0.0678
     37 H8          0.7568   -1.6008    1.2356 H         1 <0>         0.0535
     38 H9         -3.8040    0.3342    2.8812 H         1 <0>         0.0973
     39 H10        -6.1340   -0.1654    0.9738 H         1 <0>         0.0672
     40 H11        -6.2214    0.7380    2.5050 H         1 <0>         0.0674
     41 H12        -5.2504    1.3693    1.1534 H         1 <0>         0.0531
     42 H13        -5.3754   -2.1964    2.2154 H         1 <0>         0.0666
     43 H14        -3.9512   -2.1088    3.2795 H         1 <0>         0.0531
     44 H15        -5.4628   -1.2931    3.7466 H         1 <0>         0.0675
     45 H16        -2.6496   -1.6959   -3.6049 H         1 <0>         0.1369
     46 H17        -3.5728   -3.1292   -5.3770 H         1 <0>         0.1410
     47 H18        -5.9109   -5.2261   -2.4830 H         1 <0>         0.1399
     48 H19        -4.9879   -3.8086   -0.6980 H         1 <0>         0.1386
     49 H20        -0.4497   -0.9317   -2.6827 H         1 <0>         0.1343
     50 H21        -1.4399   -3.7341   -2.0060 H         1 <0>         0.1276
     51 H22         0.4756   -2.4395   -4.0844 H         1 <0>         0.0861
     52 H23         1.6986   -3.8243   -2.4427 H         1 <0>         0.1008
     53 H24         0.6149   -5.1963   -2.7785 H         1 <0>         0.0933
     54 H25         1.6726   -5.5459   -6.3602 H         1 <0>         0.1084
     55 H26         0.7205   -6.3394   -5.0787 H         1 <0>         0.1186
     56 H27         3.5658   -5.9346   -4.6449 H         1 <0>         0.3865
@<TRIPOS>BOND
     1    1    2 1
     2    1   31 1
     3    1   32 1
     4    1   33 1
     5    2    3 1
     6    2    4 1
     7    2   34 1
     8    3   35 1
     9    3   36 1
    10    3   37 1
    11    4    9 ar
    12    4    5 ar
    13    5    6 ar
    14    5   20 1
    15    6    7 ar
    16    6   13 1
    17    7    8 ar
    18    8    9 ar
    19    8   10 1
    20   10   11 1
    21   10   12 1
    22   10   38 1
    23   11   39 1
    24   11   40 1
    25   11   41 1
    26   12   42 1
    27   12   43 1
    28   12   44 1
    29   13   18 ar
    30   13   14 ar
    31   14   15 ar
    32   14   45 1
    33   15   16 ar
    34   15   46 1
    35   16   17 ar
    36   16   19 1
    37   17   18 ar
    38   17   47 1
    39   18   48 1
    40   20   21 2
    41   20   49 1
    42   21   22 1
    43   21   50 1
    44   22   29 1
    45   22   23 1
    46   22   51 1
    47   23   24 1
    48   23   52 1
    49   23   53 1
    50   24   25 1
    51   24   26 1
    52   24   30 1
    53   26   27 1
    54   26   54 1
    55   26   55 1
    56   27   28 2
    57   27   29 1
    58   30   56 1
@<TRIPOS>MOLECULE
CHEMBL154335
   63    66     0     0     0
SMALL
USER_CHARGES

@<TRIPOS>ATOM
      1 C1         -0.0187    1.5258    0.0104 C.3       1 <0>        -0.1419
      2 C2          0.0021   -0.0041    0.0020 C.3       1 <0>        -0.0480
      3 C3          0.7421   -0.5109    1.2415 C.3       1 <0>        -0.1397
      4 C4         -1.4117   -0.5257    0.0127 C.ar      1 <0>         0.2042
      5 C5         -1.8769   -1.3352   -1.0273 C.ar      1 <0>        -0.1597
      6 C6         -3.2086   -1.7941   -0.9642 C.ar      1 <0>         0.2302
      7 N1         -3.9588   -1.4384    0.0760 N.ar      1 <0>        -0.5045
      8 C7         -3.4708   -0.6732    1.0296 C.ar      1 <0>         0.3348
      9 N2         -2.2289   -0.2288    1.0087 N.ar      1 <0>        -0.5101
     10 C8         -4.3591   -0.2972    2.1874 C.3       1 <0>        -0.0164
     11 C9         -4.8203   -1.5650    2.9091 C.3       1 <0>        -0.1061
     12 C10        -5.7221   -1.1833    4.0846 C.3       1 <0>        -0.1178
     13 C11        -6.9420   -0.4200    3.5647 C.3       1 <0>        -0.1212
     14 C12        -6.4808    0.8478    2.8430 C.3       1 <0>        -0.1179
     15 C13        -5.5789    0.4661    1.6675 C.3       1 <0>        -0.1069
     16 C14        -3.7619   -2.6546   -2.0347 C.ar      1 <0>        -0.0715
     17 C15        -3.3629   -2.4685   -3.3584 C.ar      1 <0>        -0.0556
     18 C16        -3.8811   -3.2725   -4.3519 C.ar      1 <0>        -0.1590
     19 C17        -4.7972   -4.2637   -4.0371 C.ar      1 <0>         0.1199
     20 C18        -5.1968   -4.4524   -2.7235 C.ar      1 <0>        -0.1607
     21 C19        -4.6796   -3.6577   -1.7220 C.ar      1 <0>        -0.0441
     22 F1         -5.3028   -5.0481   -5.0139 F         1 <0>        -0.1346
     23 C20        -1.0004   -1.6986   -2.1583 C.2       1 <0>        -0.0896
     24 C21        -0.8892   -2.9673   -2.5304 C.2       1 <0>        -0.1416
     25 C22         0.0056   -3.3382   -3.6849 C.3       1 <0>         0.1443
     26 C23         1.0143   -4.3964   -3.2303 C.3       1 <0>        -0.1478
     27 C24         1.9486   -4.7407   -4.3947 C.3       1 <0>         0.1043
     28 H1          2.6765   -5.4846   -4.0711 H         1 <0>         0.0821
     29 C25         2.6786   -3.4665   -4.8383 C.3       1 <0>        -0.2047
     30 C26         1.6455   -2.3889   -5.0850 C.2       1 <0>         0.4980
     31 O1          1.6578   -1.7374   -6.1025 O.2       1 <0>        -0.4486
     32 O2          0.7104   -2.1762   -4.1360 O.3       1 <0>        -0.3698
     33 O3          1.1841   -5.2611   -5.4841 O.3       1 <0>        -0.5633
     34 H2          1.0039    1.9031    0.0027 H         1 <0>         0.0652
     35 H3         -0.5459    1.8868   -0.8726 H         1 <0>         0.0536
     36 H4         -0.5289    1.8773    0.9072 H         1 <0>         0.0673
     37 H5          0.5123   -0.3556   -0.8948 H         1 <0>         0.0926
     38 H6          0.2319   -0.1594    2.1383 H         1 <0>         0.0670
     39 H7          0.7568   -1.6008    1.2356 H         1 <0>         0.0524
     40 H8          1.7647   -0.1336    1.2338 H         1 <0>         0.0647
     41 H9         -3.8040    0.3342    2.8812 H         1 <0>         0.0962
     42 H10        -5.3754   -2.1964    2.2154 H         1 <0>         0.0737
     43 H11        -3.9512   -2.1088    3.2795 H         1 <0>         0.0594
     44 H12        -6.0507   -2.0865    4.5988 H         1 <0>         0.0651
     45 H13        -5.1670   -0.5519    4.7784 H         1 <0>         0.0634
     46 H14        -7.4971   -1.0515    2.8710 H         1 <0>         0.0635
     47 H15        -7.5845   -0.1481    4.4022 H         1 <0>         0.0627
     48 H16        -7.3498    1.3915    2.4726 H         1 <0>         0.0652
     49 H17        -5.9257    1.4792    3.5367 H         1 <0>         0.0634
     50 H18        -5.2504    1.3693    1.1534 H         1 <0>         0.0596
     51 H19        -6.1340   -0.1654    0.9738 H         1 <0>         0.0743
     52 H20        -2.6496   -1.6959   -3.6049 H         1 <0>         0.1412
     53 H21        -3.5728   -3.1292   -5.3770 H         1 <0>         0.1411
     54 H22        -5.9109   -5.2261   -2.4830 H         1 <0>         0.1412
     55 H23        -4.9879   -3.8086   -0.6980 H         1 <0>         0.1399
     56 H24        -0.4497   -0.9317   -2.6827 H         1 <0>         0.1415
     57 H25        -1.4399   -3.7341   -2.0060 H         1 <0>         0.1344
     58 H26        -0.5984   -3.7367   -4.5000 H         1 <0>         0.0994
     59 H27         1.5996   -4.0068   -2.3974 H         1 <0>         0.0983
     60 H28         0.4824   -5.2934   -2.9134 H         1 <0>         0.1003
     61 H29         3.3652   -3.1448   -4.0552 H         1 <0>         0.1197
     62 H30         3.2328   -3.6613   -5.7565 H         1 <0>         0.1094
     63 H31         1.7135   -5.5007   -6.2571 H         1 <0>         0.3876
@<TRIPOS>BOND
     1    1    2 1
     2    1   34 1
     3    1   35 1
     4    1   36 1
     5    2    3 1
     6    2    4 1
     7    2   37 1
     8    3   38 1
     9    3   39 1
    10    3   40 1
    11    4    9 ar
    12    4    5 ar
    13    5    6 ar
    14    5   23 1
    15    6    7 ar
    16    6   16 1
    17    7    8 ar
    18    8    9 ar
    19    8   10 1
    20   10   15 1
    21   10   11 1
    22   10   41 1
    23   11   12 1
    24   11   42 1
    25   11   43 1
    26   12   13 1
    27   12   44 1
    28   12   45 1
    29   13   14 1
    30   13   46 1
    31   13   47 1
    32   14   15 1
    33   14   48 1
    34   14   49 1
    35   15   50 1
    36   15   51 1
    37   16   21 ar
    38   16   17 ar
    39   17   18 ar
    40   17   52 1
    41   18   19 ar
    42   18   53 1
    43   19   20 ar
    44   19   22 1
    45   20   21 ar
    46   20   54 1
    47   21   55 1
    48   23   24 2
    49   23   56 1
    50   24   25 1
    51   24   57 1
    52   25   32 1
    53   25   26 1
    54   25   58 1
    55   26   27 1
    56   26   59 1
    57   26   60 1
    58   27   28 1
    59   27   29 1
    60   27   33 1
    61   29   30 1
    62   29   61 1
    63   29   62 1
    64   30   31 2
    65   30   32 1
    66   33   63 1
@<TRIPOS>MOLECULE
CHEMBL154335__1
   63    66     0     0     0
SMALL
USER_CHARGES

@<TRIPOS>ATOM
      1 C1         -0.0187    1.5258    0.0104 C.3       1 <0>        -0.1425
      2 C2          0.0021   -0.0041    0.0020 C.3       1 <0>        -0.0473
      3 C3          0.7421   -0.5109    1.2415 C.3       1 <0>        -0.1411
      4 C4         -1.4117   -0.5257    0.0127 C.ar      1 <0>         0.2065
      5 C5         -1.8769   -1.3352   -1.0273 C.ar      1 <0>        -0.1665
      6 C6         -3.2086   -1.7941   -0.9642 C.ar      1 <0>         0.2390
      7 N1         -3.9588   -1.4384    0.0760 N.ar      1 <0>        -0.5053
      8 C7         -3.4708   -0.6732    1.0296 C.ar      1 <0>         0.3391
      9 N2         -2.2289   -0.2288    1.0087 N.ar      1 <0>        -0.5118
     10 C8         -4.3591   -0.2972    2.1874 C.3       1 <0>        -0.0170
     11 C9         -4.8203   -1.5650    2.9091 C.3       1 <0>        -0.1065
     12 C10        -5.7221   -1.1833    4.0846 C.3       1 <0>        -0.1178
     13 C11        -6.9420   -0.4200    3.5647 C.3       1 <0>        -0.1214
     14 C12        -6.4808    0.8478    2.8430 C.3       1 <0>        -0.1178
     15 C13        -5.5789    0.4661    1.6675 C.3       1 <0>        -0.1070
     16 C14        -3.7619   -2.6546   -2.0347 C.ar      1 <0>        -0.0771
     17 C15        -3.3629   -2.4685   -3.3584 C.ar      1 <0>        -0.0496
     18 C16        -3.8811   -3.2725   -4.3519 C.ar      1 <0>        -0.1430
     19 C17        -4.7972   -4.2637   -4.0371 C.ar      1 <0>         0.1192
     20 C18        -5.1968   -4.4524   -2.7235 C.ar      1 <0>        -0.1616
     21 C19        -4.6796   -3.6577   -1.7220 C.ar      1 <0>        -0.0455
     22 F1         -5.3028   -5.0481   -5.0139 F         1 <0>        -0.1355
     23 C20        -1.0004   -1.6986   -2.1583 C.2       1 <0>        -0.0852
     24 C21        -0.8892   -2.9673   -2.5304 C.2       1 <0>        -0.1284
     25 C22         0.0056   -3.3382   -3.6849 C.3       1 <0>         0.1438
     26 C23         1.0861   -4.3097   -3.2026 C.3       1 <0>        -0.1517
     27 C24         1.9684   -4.7167   -4.3871 C.3       1 <0>         0.1101
     28 H1          2.4447   -3.8316   -4.8087 H         1 <0>         0.0685
     29 C25         1.0904   -5.3848   -5.4529 C.3       1 <0>        -0.2057
     30 C26        -0.0753   -4.4675   -5.7509 C.2       1 <0>         0.4920
     31 O1         -0.3737   -4.1912   -6.8887 O.2       1 <0>        -0.4446
     32 O2         -0.7721   -3.9670   -4.7097 O.3       1 <0>        -0.3582
     33 O3          2.9703   -5.6346   -3.9445 O.3       1 <0>        -0.5546
     34 H2          1.0039    1.9031    0.0027 H         1 <0>         0.0658
     35 H3         -0.5459    1.8868   -0.8726 H         1 <0>         0.0535
     36 H4         -0.5289    1.8773    0.9072 H         1 <0>         0.0682
     37 H5          0.5123   -0.3556   -0.8948 H         1 <0>         0.0902
     38 H6          0.2319   -0.1594    2.1383 H         1 <0>         0.0678
     39 H7          0.7568   -1.6008    1.2356 H         1 <0>         0.0534
     40 H8          1.7647   -0.1336    1.2338 H         1 <0>         0.0655
     41 H9         -3.8040    0.3342    2.8812 H         1 <0>         0.0966
     42 H10        -5.3754   -2.1964    2.2154 H         1 <0>         0.0740
     43 H11        -3.9512   -2.1088    3.2795 H         1 <0>         0.0597
     44 H12        -6.0507   -2.0865    4.5988 H         1 <0>         0.0654
     45 H13        -5.1670   -0.5519    4.7784 H         1 <0>         0.0635
     46 H14        -7.4971   -1.0515    2.8710 H         1 <0>         0.0637
     47 H15        -7.5845   -0.1481    4.4022 H         1 <0>         0.0629
     48 H16        -7.3498    1.3915    2.4726 H         1 <0>         0.0654
     49 H17        -5.9257    1.4792    3.5367 H         1 <0>         0.0634
     50 H18        -5.2504    1.3693    1.1534 H         1 <0>         0.0596
     51 H19        -6.1340   -0.1654    0.9738 H         1 <0>         0.0746
     52 H20        -2.6496   -1.6959   -3.6049 H         1 <0>         0.1368
     53 H21        -3.5728   -3.1292   -5.3770 H         1 <0>         0.1409
     54 H22        -5.9109   -5.2261   -2.4830 H         1 <0>         0.1398
     55 H23        -4.9879   -3.8086   -0.6980 H         1 <0>         0.1385
     56 H24        -0.4497   -0.9317   -2.6827 H         1 <0>         0.1342
     57 H25        -1.4399   -3.7341   -2.0060 H         1 <0>         0.1276
     58 H26         0.4756   -2.4395   -4.0844 H         1 <0>         0.0860
     59 H27         1.6986   -3.8243   -2.4427 H         1 <0>         0.1008
     60 H28         0.6149   -5.1963   -2.7785 H         1 <0>         0.0933
     61 H29         1.6726   -5.5459   -6.3602 H         1 <0>         0.1083
     62 H30         0.7205   -6.3394   -5.0787 H         1 <0>         0.1186
     63 H31         3.5658   -5.9346   -4.6449 H         1 <0>         0.3865
@<TRIPOS>BOND
     1    1    2 1
     2    1   34 1
     3    1   35 1
     4    1   36 1
     5    2    3 1
     6    2    4 1
     7    2   37 1
     8    3   38 1
     9    3   39 1
    10    3   40 1
    11    4    9 ar
    12    4    5 ar
    13    5    6 ar
    14    5   23 1
    15    6    7 ar
    16    6   16 1
    17    7    8 ar
    18    8    9 ar
    19    8   10 1
    20   10   15 1
    21   10   11 1
    22   10   41 1
    23   11   12 1
    24   11   42 1
    25   11   43 1
    26   12   13 1
    27   12   44 1
    28   12   45 1
    29   13   14 1
    30   13   46 1
    31   13   47 1
    32   14   15 1
    33   14   48 1
    34   14   49 1
    35   15   50 1
    36   15   51 1
    37   16   21 ar
    38   16   17 ar
    39   17   18 ar
    40   17   52 1
    41   18   19 ar
    42   18   53 1
    43   19   20 ar
    44   19   22 1
    45   20   21 ar
    46   20   54 1
    47   21   55 1
    48   23   24 2
    49   23   56 1
    50   24   25 1
    51   24   57 1
    52   25   32 1
    53   25   26 1
    54   25   58 1
    55   26   27 1
    56   26   59 1
    57   26   60 1
    58   27   28 1
    59   27   29 1
    60   27   33 1
    61   29   30 1
    62   29   61 1
    63   29   62 1
    64   30   31 2
    65   30   32 1
    66   33   63 1
@<TRIPOS>MOLECULE
CHEMBL143143
   51    52     0     0     0
SMALL
USER_CHARGES

@<TRIPOS>ATOM
      1 C1         -0.0187    1.5258    0.0104 C.3       1 <0>        -0.1527
      2 C2          0.0021   -0.0041    0.0020 C.3       1 <0>        -0.0311
      3 C3         -1.4333   -0.5336    0.0129 C.3       1 <0>        -0.1519
      4 C4          0.7074   -0.4901   -1.2379 C.2       1 <0>         0.0894
      5 C5          0.3365   -0.2296   -2.5105 C.2       1 <0>        -0.1438
      6 C6          1.2563   -0.8653   -3.3621 C.2       1 <0>        -0.1256
      7 C7          2.1687   -1.5000   -2.5732 C.2       1 <0>         0.0993
      8 N1          1.8318   -1.2624   -1.2645 N.pl3     1 <0>        -0.4166
      9 C8          2.5561   -1.7585   -0.0917 C.3       1 <0>         0.0960
     10 C9          1.9915   -3.1203    0.3180 C.3       1 <0>        -0.1672
     11 C10         2.7479   -3.6384    1.5429 C.3       1 <0>         0.1181
     12 C11         2.2693   -5.0526    1.8772 C.3       1 <0>        -0.1857
     13 C12         3.1111   -5.6184    3.0228 C.3       1 <0>         0.1382
     14 H1          4.1669   -5.5683    2.7569 H         1 <0>         0.0931
     15 C13         2.7169   -7.0752    3.2741 C.3       1 <0>        -0.2197
     16 C14         3.6280   -7.6694    4.3171 C.2       1 <0>         0.4907
     17 O1          4.5108   -6.9905    4.8135 O.co2     1 <0>        -0.6812
     18 O2          3.4823   -8.8289    4.6646 O.co2     1 <0>        -0.7121
     19 O3          2.8811   -4.8517    4.2066 O.3       1 <0>        -0.5278
     20 O4          2.5004   -2.7763    2.6554 O.3       1 <0>        -0.5411
     21 C15         3.3207   -2.2982   -3.0441 C.ar      1 <0>        -0.0407
     22 C16         4.5742   -2.1355   -2.4522 C.ar      1 <0>        -0.0780
     23 C17         5.6454   -2.8831   -2.8952 C.ar      1 <0>        -0.1482
     24 C18         5.4787   -3.7943   -3.9258 C.ar      1 <0>         0.1101
     25 C19         4.2365   -3.9594   -4.5173 C.ar      1 <0>        -0.1482
     26 C20         3.1572   -3.2212   -4.0783 C.ar      1 <0>        -0.0589
     27 F1          6.5313   -4.5239   -4.3558 F         1 <0>        -0.1357
     28 Br1         1.2321   -0.8445   -5.2528 Br        1 <0>        -0.0146
     29 Br2        -1.1530    0.8034   -3.0492 Br        1 <0>        -0.0134
     30 H2          1.0039    1.9031    0.0027 H         1 <0>         0.0558
     31 H3         -0.5459    1.8868   -0.8726 H         1 <0>         0.0713
     32 H4         -0.5289    1.8773    0.9072 H         1 <0>         0.0659
     33 H5          0.5293   -0.3651    0.8851 H         1 <0>         0.0841
     34 H6         -1.9605   -0.1726   -0.8702 H         1 <0>         0.0710
     35 H7         -1.4185   -1.6235    0.0069 H         1 <0>         0.0559
     36 H8         -1.9435   -0.1821    0.9097 H         1 <0>         0.0661
     37 H9          3.6136   -1.8619   -0.3346 H         1 <0>         0.0997
     38 H10         2.4396   -1.0542    0.7320 H         1 <0>         0.1065
     39 H11         0.9339   -3.0169    0.5610 H         1 <0>         0.0741
     40 H12         2.1079   -3.8246   -0.5057 H         1 <0>         0.0795
     41 H13         3.8165   -3.6575    1.3287 H         1 <0>         0.1003
     42 H14         1.2220   -5.0203    2.1775 H         1 <0>         0.0641
     43 H15         2.3760   -5.6894    0.9991 H         1 <0>         0.0747
     44 H16         1.6860   -7.1172    3.6257 H         1 <0>         0.0565
     45 H17         2.8080   -7.6413    2.3471 H         1 <0>         0.0610
     46 H18         1.9604   -4.8513    4.5022 H         1 <0>         0.3503
     47 H19         1.5678   -2.7110    2.9025 H         1 <0>         0.3669
     48 H20         4.7053   -1.4254   -1.6492 H         1 <0>         0.1335
     49 H21         6.6159   -2.7578   -2.4381 H         1 <0>         0.1417
     50 H22         4.1122   -4.6707   -5.3204 H         1 <0>         0.1415
     51 H23         2.1885   -3.3538   -4.5369 H         1 <0>         0.1388
@<TRIPOS>BOND
     1    1    2 1
     2    1   30 1
     3    1   31 1
     4    1   32 1
     5    2    3 1
     6    2    4 1
     7    2   33 1
     8    3   34 1
     9    3   35 1
    10    3   36 1
    11    4    8 1
    12    4    5 2
    13    5    6 1
    14    5   29 1
    15    6    7 2
    16    6   28 1
    17    7    8 1
    18    7   21 1
    19    8    9 1
    20    9   10 1
    21    9   37 1
    22    9   38 1
    23   10   11 1
    24   10   39 1
    25   10   40 1
    26   11   12 1
    27   11   20 1
    28   11   41 1
    29   12   13 1
    30   12   42 1
    31   12   43 1
    32   13   14 1
    33   13   15 1
    34   13   19 1
    35   15   16 1
    36   15   44 1
    37   15   45 1
    38   16   17 2
    39   16   18 1
    40   19   46 1
    41   20   47 1
    42   21   26 ar
    43   21   22 ar
    44   22   23 ar
    45   22   48 1
    46   23   24 ar
    47   23   49 1
    48   24   25 ar
    49   24   27 1
    50   25   26 ar
    51   25   50 1
    52   26   51 1
@<TRIPOS>MOLECULE
CHEMBL143143__1
   51    52     0     0     0
SMALL
USER_CHARGES

@<TRIPOS>ATOM
      1 C1         -0.0187    1.5258    0.0104 C.3       1 <0>        -0.1528
      2 C2          0.0021   -0.0041    0.0020 C.3       1 <0>        -0.0316
      3 C3         -1.4333   -0.5336    0.0129 C.3       1 <0>        -0.1521
      4 C4          0.7074   -0.4901   -1.2379 C.2       1 <0>         0.0888
      5 C5          0.3365   -0.2296   -2.5105 C.2       1 <0>        -0.1433
      6 C6          1.2563   -0.8653   -3.3621 C.2       1 <0>        -0.1259
      7 C7          2.1687   -1.5000   -2.5732 C.2       1 <0>         0.0997
      8 N1          1.8318   -1.2624   -1.2645 N.pl3     1 <0>        -0.4167
      9 C8          2.5561   -1.7585   -0.0917 C.3       1 <0>         0.0952
     10 C9          1.9915   -3.1203    0.3180 C.3       1 <0>        -0.1666
     11 C10         2.7479   -3.6384    1.5429 C.3       1 <0>         0.1158
     12 C11         2.1035   -4.9385    2.0279 C.3       1 <0>        -0.1850
     13 C12         2.7798   -5.3905    3.3238 C.3       1 <0>         0.1358
     14 H1          3.8549   -5.4717    3.1633 H         1 <0>         0.1028
     15 C13         2.2222   -6.7525    3.7419 C.3       1 <0>        -0.2190
     16 C14         2.9735   -7.2541    4.9481 C.2       1 <0>         0.4905
     17 O1          3.8718   -6.5842    5.4288 O.co2     1 <0>        -0.6808
     18 O2          2.6832   -8.3297    5.4434 O.co2     1 <0>        -0.7119
     19 O3          2.5229   -4.4340    4.3539 O.3       1 <0>        -0.5415
     20 O4          4.1111   -3.8844    1.1919 O.3       1 <0>        -0.5532
     21 C15         3.3207   -2.2982   -3.0441 C.ar      1 <0>        -0.0409
     22 C16         4.5742   -2.1355   -2.4522 C.ar      1 <0>        -0.0744
     23 C17         5.6454   -2.8831   -2.8952 C.ar      1 <0>        -0.1470
     24 C18         5.4787   -3.7943   -3.9258 C.ar      1 <0>         0.1094
     25 C19         4.2365   -3.9594   -4.5173 C.ar      1 <0>        -0.1493
     26 C20         3.1572   -3.2212   -4.0783 C.ar      1 <0>        -0.0594
     27 F1          6.5313   -4.5239   -4.3558 F         1 <0>        -0.1363
     28 Br1         1.2321   -0.8445   -5.2528 Br        1 <0>        -0.0147
     29 Br2        -1.1530    0.8034   -3.0492 Br        1 <0>        -0.0132
     30 H2          1.0039    1.9031    0.0027 H         1 <0>         0.0558
     31 H3         -0.5459    1.8868   -0.8726 H         1 <0>         0.0717
     32 H4         -0.5289    1.8773    0.9072 H         1 <0>         0.0661
     33 H5          0.5293   -0.3651    0.8851 H         1 <0>         0.0829
     34 H6         -1.9605   -0.1726   -0.8702 H         1 <0>         0.0712
     35 H7         -1.4185   -1.6235    0.0069 H         1 <0>         0.0565
     36 H8         -1.9435   -0.1821    0.9097 H         1 <0>         0.0664
     37 H9          3.6136   -1.8619   -0.3346 H         1 <0>         0.1080
     38 H10         2.4396   -1.0542    0.7320 H         1 <0>         0.0991
     39 H11         0.9339   -3.0169    0.5610 H         1 <0>         0.0801
     40 H12         2.1079   -3.8246   -0.5057 H         1 <0>         0.0740
     41 H13         2.7060   -2.8936    2.3376 H         1 <0>         0.1089
     42 H14         1.0420   -4.7716    2.2111 H         1 <0>         0.0693
     43 H15         2.2240   -5.7097    1.2671 H         1 <0>         0.0703
     44 H16         1.1651   -6.6523    3.9881 H         1 <0>         0.0566
     45 H17         2.3386   -7.4603    2.9212 H         1 <0>         0.0618
     46 H18         1.5842   -4.3099    4.5502 H         1 <0>         0.3539
     47 H19         4.2243   -4.5386    0.4889 H         1 <0>         0.3708
     48 H20         4.7053   -1.4254   -1.6492 H         1 <0>         0.1338
     49 H21         6.6159   -2.7578   -2.4381 H         1 <0>         0.1417
     50 H22         4.1122   -4.6707   -5.3204 H         1 <0>         0.1408
     51 H23         2.1885   -3.3538   -4.5369 H         1 <0>         0.1382
@<TRIPOS>BOND
     1    1    2 1
     2    1   30 1
     3    1   31 1
     4    1   32 1
     5    2    3 1
     6    2    4 1
     7    2   33 1
     8    3   34 1
     9    3   35 1
    10    3   36 1
    11    4    8 1
    12    4    5 2
    13    5    6 1
    14    5   29 1
    15    6    7 2
    16    6   28 1
    17    7    8 1
    18    7   21 1
    19    8    9 1
    20    9   10 1
    21    9   37 1
    22    9   38 1
    23   10   11 1
    24   10   39 1
    25   10   40 1
    26   11   12 1
    27   11   20 1
    28   11   41 1
    29   12   13 1
    30   12   42 1
    31   12   43 1
    32   13   14 1
    33   13   15 1
    34   13   19 1
    35   15   16 1
    36   15   44 1
    37   15   45 1
    38   16   17 2
    39   16   18 1
    40   19   46 1
    41   20   47 1
    42   21   26 ar
    43   21   22 ar
    44   22   23 ar
    45   22   48 1
    46   23   24 ar
    47   23   49 1
    48   24   25 ar
    49   24   27 1
    50   25   26 ar
    51   25   50 1
    52   26   51 1
@<TRIPOS>MOLECULE
CHEMBL228667
   76    80     0     0     0
SMALL
USER_CHARGES

@<TRIPOS>ATOM
      1 C1          0.7057    0.9747   -1.2148 C.3       1 <0>        -0.1810
      2 C2         -0.7224    1.4463   -0.9333 C.3       1 <0>         0.1167
      3 C3         -1.2458    2.2340   -2.1359 C.3       1 <0>        -0.1688
      4 N1         -1.5831    0.2843   -0.6985 N.pl3     1 <0>        -0.3911
      5 C4         -1.7081   -0.7808   -1.5268 C.2       1 <0>         0.0886
      6 C5         -2.5960   -1.6634   -0.9864 C.2       1 <0>        -0.1281
      7 C6         -3.0438   -1.1140    0.2413 C.2       1 <0>        -0.0574
      8 C7         -2.3896    0.0974    0.4019 C.2       1 <0>        -0.0309
      9 C8         -2.5289    1.0081    1.5360 C.2       1 <0>         0.5976
     10 O1         -1.5552    1.6254    1.9271 O.2       1 <0>        -0.5274
     11 N2         -3.7032    1.1787    2.1536 N.am      1 <0>        -0.5520
     12 C9         -4.9363    0.5617    1.6959 C.3       1 <0>         0.1572
     13 C10        -4.9168   -0.9288    1.8749 C.ar      1 <0>        -0.1075
     14 C11        -4.0207   -1.7212    1.1690 C.ar      1 <0>         0.0061
     15 C12        -4.0327   -3.1060    1.3472 C.ar      1 <0>        -0.0986
     16 C13        -4.9353   -3.6806    2.2179 C.ar      1 <0>        -0.1099
     17 C14        -5.8275   -2.8849    2.9138 C.ar      1 <0>        -0.1209
     18 C15        -5.8109   -1.5190    2.7493 C.ar      1 <0>        -0.1016
     19 C16        -3.7458    1.9883    3.2928 C.ar      1 <0>         0.1355
     20 C17        -4.1461    3.3143    3.1898 C.ar      1 <0>        -0.1089
     21 C18        -4.1875    4.1111    4.3171 C.ar      1 <0>        -0.1124
     22 C19        -3.8305    3.5901    5.5474 C.ar      1 <0>        -0.1141
     23 C20        -3.4310    2.2705    5.6533 C.ar      1 <0>        -0.1113
     24 C21        -3.3933    1.4666    4.5309 C.ar      1 <0>        -0.1029
     25 C22        -3.0163   -2.9587   -1.5749 C.ar      1 <0>        -0.0113
     26 C23        -2.1048   -4.0078   -1.6785 C.ar      1 <0>        -0.0824
     27 C24        -2.5002   -5.2110   -2.2261 C.ar      1 <0>        -0.1491
     28 C25        -3.8010   -5.3769   -2.6730 C.ar      1 <0>         0.0964
     29 C26        -4.7105   -4.3368   -2.5719 C.ar      1 <0>        -0.1513
     30 C27        -4.3254   -3.1320   -2.0204 C.ar      1 <0>        -0.0736
     31 F1         -4.1837   -6.5564   -3.2093 F         1 <0>        -0.1410
     32 C28        -0.9821   -0.9611   -2.8350 C.3       1 <0>        -0.0608
     33 C29         0.2778   -1.7989   -2.6077 C.3       1 <0>        -0.1585
     34 C30         1.0477   -1.9294   -3.9235 C.3       1 <0>         0.1141
     35 H1          0.3888   -2.3349   -4.6913 H         1 <0>         0.0989
     36 C31         2.2393   -2.8685   -3.7261 C.3       1 <0>        -0.1868
     37 C32         2.9359   -3.0977   -5.0689 C.3       1 <0>         0.1380
     38 H2          2.2110   -3.4623   -5.7967 H         1 <0>         0.0927
     39 C33         4.0495   -4.1325   -4.8957 C.3       1 <0>        -0.2193
     40 C34         4.6542   -4.4493   -6.2393 C.2       1 <0>         0.4904
     41 O2          4.2335   -3.8985   -7.2423 O.co2     1 <0>        -0.6810
     42 O3          5.5641   -5.2565   -6.3232 O.co2     1 <0>        -0.7132
     43 O4          3.4968   -1.8671   -5.5307 O.3       1 <0>        -0.5279
     44 O5          1.5176   -0.6426   -4.3300 O.3       1 <0>        -0.5408
     45 H3          1.3566    1.8404   -1.3376 H         1 <0>         0.0794
     46 H4          1.0596    0.3695   -0.3802 H         1 <0>         0.0649
     47 H5          0.7181    0.3784   -2.1271 H         1 <0>         0.0867
     48 H6         -0.7264    2.0857   -0.0505 H         1 <0>         0.1143
     49 H7         -1.3573    1.5640   -2.9884 H         1 <0>         0.0734
     50 H8         -2.2127    2.6730   -1.8899 H         1 <0>         0.0600
     51 H9         -0.5402    3.0263   -2.3863 H         1 <0>         0.0808
     52 H10        -5.7713    0.9760    2.2610 H         1 <0>         0.0963
     53 H11        -5.0766    0.7904    0.6395 H         1 <0>         0.0856
     54 H12        -3.3361   -3.7269    0.8036 H         1 <0>         0.1264
     55 H13        -4.9457   -4.7517    2.3558 H         1 <0>         0.1240
     56 H14        -6.5311   -3.3368    3.5974 H         1 <0>         0.1228
     57 H15        -6.5082   -0.9053    3.3003 H         1 <0>         0.1226
     58 H16        -4.4244    3.7220    2.2292 H         1 <0>         0.1239
     59 H17        -4.4987    5.1422    4.2377 H         1 <0>         0.1271
     60 H18        -3.8634    4.2154    6.4273 H         1 <0>         0.1252
     61 H19        -3.1525    1.8668    6.6155 H         1 <0>         0.1266
     62 H20        -3.0855    0.4348    4.6150 H         1 <0>         0.1223
     63 H21        -1.0904   -3.8791   -1.3311 H         1 <0>         0.1336
     64 H22        -1.7945   -6.0246   -2.3068 H         1 <0>         0.1370
     65 H23        -5.7235   -4.4704   -2.9218 H         1 <0>         0.1337
     66 H24        -5.0363   -2.3231   -1.9378 H         1 <0>         0.1294
     67 H25        -1.6338   -1.4703   -3.5450 H         1 <0>         0.0892
     68 H26        -0.7029    0.0144   -3.2331 H         1 <0>         0.0903
     69 H27         0.9088   -1.3118   -1.8643 H         1 <0>         0.0722
     70 H28        -0.0041   -2.7899   -2.2519 H         1 <0>         0.0778
     71 H29         2.9424   -2.4207   -3.0238 H         1 <0>         0.0619
     72 H30         1.8889   -3.8221   -3.3312 H         1 <0>         0.0740
     73 H31         4.8191   -3.7312   -4.2364 H         1 <0>         0.0557
     74 H32         3.6358   -5.0419   -4.4599 H         1 <0>         0.0607
     75 H33         4.1517   -1.4839   -4.9312 H         1 <0>         0.3494
     76 H34         2.1106   -0.2211   -3.6930 H         1 <0>         0.3625
@<TRIPOS>BOND
     1    1    2 1
     2    1   45 1
     3    1   46 1
     4    1   47 1
     5    2    3 1
     6    2    4 1
     7    2   48 1
     8    3   49 1
     9    3   50 1
    10    3   51 1
    11    4    8 1
    12    4    5 1
    13    5    6 2
    14    5   32 1
    15    6    7 1
    16    6   25 1
    17    7   14 1
    18    7    8 2
    19    8    9 1
    20    9   10 2
    21    9   11 am
    22   11   12 1
    23   11   19 1
    24   12   13 1
    25   12   52 1
    26   12   53 1
    27   13   18 ar
    28   13   14 ar
    29   14   15 ar
    30   15   16 ar
    31   15   54 1
    32   16   17 ar
    33   16   55 1
    34   17   18 ar
    35   17   56 1
    36   18   57 1
    37   19   24 ar
    38   19   20 ar
    39   20   21 ar
    40   20   58 1
    41   21   22 ar
    42   21   59 1
    43   22   23 ar
    44   22   60 1
    45   23   24 ar
    46   23   61 1
    47   24   62 1
    48   25   30 ar
    49   25   26 ar
    50   26   27 ar
    51   26   63 1
    52   27   28 ar
    53   27   64 1
    54   28   29 ar
    55   28   31 1
    56   29   30 ar
    57   29   65 1
    58   30   66 1
    59   32   33 1
    60   32   67 1
    61   32   68 1
    62   33   34 1
    63   33   69 1
    64   33   70 1
    65   34   35 1
    66   34   36 1
    67   34   44 1
    68   36   37 1
    69   36   71 1
    70   36   72 1
    71   37   38 1
    72   37   39 1
    73   37   43 1
    74   39   40 1
    75   39   73 1
    76   39   74 1
    77   40   41 2
    78   40   42 1
    79   43   75 1
    80   44   76 1
@<TRIPOS>MOLECULE
CHEMBL331680
   62    64     0     0     0
SMALL
USER_CHARGES

@<TRIPOS>ATOM
      1 C1         -0.0187    1.5258    0.0104 C.3       1 <0>        -0.1430
      2 C2          0.0021   -0.0041    0.0020 C.3       1 <0>        -0.0253
      3 C3         -1.4333   -0.5336    0.0129 C.3       1 <0>        -0.1423
      4 C4          0.7074   -0.4901   -1.2379 C.2       1 <0>         0.0376
      5 C5          0.6661    0.1055   -2.4448 C.2       1 <0>        -0.1617
      6 C6          1.4581   -0.6639   -3.3321 C.2       1 <0>        -0.1136
      7 C7          1.9620   -1.7278   -2.6007 C.2       1 <0>         0.1009
      8 N1          1.4969   -1.6032   -1.3168 N.pl3     1 <0>        -0.3910
      9 C8          1.7801   -2.4724   -0.2641 C.2       1 <0>         0.0473
     10 C9          1.6287   -3.7728   -0.4237 C.2       1 <0>        -0.1800
     11 C10         1.9348   -4.7123    0.7141 C.3       1 <0>         0.1527
     12 H1          2.7819   -5.3437    0.4461 H         1 <0>         0.1156
     13 C11         0.7130   -5.5898    0.9936 C.3       1 <0>        -0.1796
     14 C12         1.0635   -6.6265    2.0629 C.3       1 <0>         0.1249
     15 H2          1.9411   -7.1910    1.7478 H         1 <0>         0.1084
     16 C13        -0.1163   -7.5819    2.2531 C.3       1 <0>        -0.1503
     17 C14         0.2725   -8.6749    3.2150 C.2       1 <0>         0.4555
     18 O1          1.3796   -8.6882    3.6989 O.2       1 <0>        -0.4860
     19 O2         -0.6111   -9.6335    3.5343 O.3       1 <0>        -0.3594
     20 C15        -0.1750  -10.6381    4.4523 C.3       1 <0>         0.0336
     21 O3          1.3423   -5.9623    3.2971 O.3       1 <0>        -0.5300
     22 O4          2.2555   -3.9559    1.8833 O.3       1 <0>        -0.5382
     23 C16         2.8438   -2.7967   -3.1095 C.ar      1 <0>        -0.0374
     24 C17         3.9552   -3.2017   -2.3667 C.ar      1 <0>        -0.0721
     25 C18         4.7753   -4.2008   -2.8471 C.ar      1 <0>        -0.1636
     26 C19         4.4986   -4.8027   -4.0645 C.ar      1 <0>         0.1080
     27 C20         3.3975   -4.4047   -4.8062 C.ar      1 <0>        -0.1652
     28 C21         2.5667   -3.4111   -4.3331 C.ar      1 <0>        -0.0060
     29 F1          5.3056   -5.7810   -4.5302 F         1 <0>        -0.1406
     30 C22         1.7008   -0.3852   -4.7651 C.ar      1 <0>         0.2079
     31 C23         1.1233    0.7375   -5.3596 C.ar      1 <0>        -0.1639
     32 C24         1.3596    0.9843   -6.6996 C.ar      1 <0>        -0.0701
     33 C25         2.1664    0.1008   -7.4047 C.ar      1 <0>        -0.1844
     34 C26         2.7067   -0.9919   -6.7536 C.ar      1 <0>         0.1042
     35 N2          2.4708   -1.2023   -5.4740 N.ar      1 <0>        -0.4812
     36 H3          1.0039    1.9031    0.0027 H         1 <0>         0.0593
     37 H4         -0.5459    1.8868   -0.8726 H         1 <0>         0.0617
     38 H5         -0.5289    1.8773    0.9072 H         1 <0>         0.0628
     39 H6          0.5293   -0.3651    0.8851 H         1 <0>         0.0758
     40 H7         -1.9605   -0.1726   -0.8702 H         1 <0>         0.0610
     41 H8         -1.4185   -1.6235    0.0069 H         1 <0>         0.0519
     42 H9         -1.9435   -0.1821    0.9097 H         1 <0>         0.0621
     43 H10         0.1259    1.0075   -2.6919 H         1 <0>         0.1443
     44 H11         2.1233   -2.0808    0.6821 H         1 <0>         0.1533
     45 H12         1.2855   -4.1643   -1.3699 H         1 <0>         0.1255
     46 H13        -0.1086   -4.9667    1.3472 H         1 <0>         0.0769
     47 H14         0.4144   -6.0994    0.0775 H         1 <0>         0.0881
     48 H15        -0.9683   -7.0321    2.6529 H         1 <0>         0.1087
     49 H16        -0.3859   -8.0219    1.2929 H         1 <0>         0.1144
     50 H17         0.6866  -11.1606    4.0367 H         1 <0>         0.0608
     51 H18         0.1042  -10.1708    5.3967 H         1 <0>         0.0612
     52 H19        -0.9832  -11.3491    4.6237 H         1 <0>         0.1023
     53 H20         0.6037   -5.4394    3.6379 H         1 <0>         0.3656
     54 H21         1.5455   -3.3703    2.1799 H         1 <0>         0.3701
     55 H22         4.1720   -2.7331   -1.4181 H         1 <0>         0.1250
     56 H23         5.6351   -4.5145   -2.2738 H         1 <0>         0.1342
     57 H24         3.1873   -4.8769   -5.7545 H         1 <0>         0.1343
     58 H25         1.7062   -3.1051   -4.9096 H         1 <0>         0.1350
     59 H26         0.5004    1.4039   -4.7814 H         1 <0>         0.1336
     60 H27         0.9260    1.8449   -7.1871 H         1 <0>         0.1337
     61 H28         2.3694    0.2659   -8.4525 H         1 <0>         0.1326
     62 H29         3.3344   -1.6804   -7.2997 H         1 <0>         0.1542
@<TRIPOS>BOND
     1    1    2 1
     2    1   36 1
     3    1   37 1
     4    1   38 1
     5    2    3 1
     6    2    4 1
     7    2   39 1
     8    3   40 1
     9    3   41 1
    10    3   42 1
    11    4    8 1
    12    4    5 2
    13    5    6 1
    14    5   43 1
    15    6    7 2
    16    6   30 1
    17    7    8 1
    18    7   23 1
    19    8    9 1
    20    9   10 2
    21    9   44 1
    22   10   11 1
    23   10   45 1
    24   11   12 1
    25   11   13 1
    26   11   22 1
    27   13   14 1
    28   13   46 1
    29   13   47 1
    30   14   15 1
    31   14   16 1
    32   14   21 1
    33   16   17 1
    34   16   48 1
    35   16   49 1
    36   17   18 2
    37   17   19 1
    38   19   20 1
    39   20   50 1
    40   20   51 1
    41   20   52 1
    42   21   53 1
    43   22   54 1
    44   23   28 ar
    45   23   24 ar
    46   24   25 ar
    47   24   55 1
    48   25   26 ar
    49   25   56 1
    50   26   27 ar
    51   26   29 1
    52   27   28 ar
    53   27   57 1
    54   28   58 1
    55   30   35 ar
    56   30   31 ar
    57   31   32 ar
    58   31   59 1
    59   32   33 ar
    60   32   60 1
    61   33   34 ar
    62   33   61 1
    63   34   35 ar
    64   34   62 1
@<TRIPOS>MOLECULE
CHEMBL228528
   73    77     0     0     0
SMALL
USER_CHARGES

@<TRIPOS>ATOM
      1 C1          0.7428   -0.5280    1.2538 C.3       1 <0>        -0.1759
      2 C2          0.0160   -1.8729    1.1916 C.3       1 <0>         0.1254
      3 C3          0.0102   -2.5142    2.5807 C.3       1 <0>        -0.1755
      4 N1         -1.3634   -1.6624    0.7452 N.pl3     1 <0>        -0.3906
      5 C4         -1.9108   -2.2108   -0.3677 C.2       1 <0>         0.1108
      6 C5         -3.2085   -1.8065   -0.4813 C.2       1 <0>        -0.1291
      7 C6         -3.4741   -0.9380    0.6595 C.2       1 <0>        -0.0415
      8 C7         -2.2915   -0.8849    1.3976 C.2       1 <0>        -0.0459
      9 C8         -2.2485   -0.1110    2.5795 C.2       1 <0>         0.5819
     10 O1         -1.2140   -0.0628    3.2222 O.2       1 <0>        -0.5191
     11 N2         -3.3215    0.5734    3.0109 N.am      1 <0>        -0.4819
     12 C9         -4.5241    0.5576    2.3248 C.ar      1 <0>         0.1589
     13 C10        -4.6416   -0.1831    1.1358 C.ar      1 <0>        -0.0490
     14 C11        -5.8515   -0.2014    0.4445 C.ar      1 <0>        -0.0701
     15 C12        -6.9237    0.5201    0.9238 C.ar      1 <0>        -0.1379
     16 C13        -6.8035    1.2624    2.0885 C.ar      1 <0>        -0.0828
     17 C14        -5.6181    1.2746    2.7936 C.ar      1 <0>        -0.1477
     18 C15        -3.2207    1.3235    4.1882 C.ar      1 <0>         0.1569
     19 C16        -3.5202    0.7401    5.4129 C.ar      1 <0>        -0.1093
     20 C17        -3.4202    1.4817    6.5735 C.ar      1 <0>        -0.0798
     21 C18        -3.0222    2.8048    6.5187 C.ar      1 <0>        -0.1416
     22 C19        -2.7227    3.3905    5.3000 C.ar      1 <0>         0.1096
     23 C20        -2.8157    2.6503    4.1348 C.ar      1 <0>        -0.1364
     24 F1         -2.3341    4.6834    5.2494 F         1 <0>        -0.1334
     25 C21        -4.1624   -2.1771   -1.5553 C.ar      1 <0>        -0.0135
     26 C22        -3.9275   -1.7737   -2.8684 C.ar      1 <0>        -0.0784
     27 C23        -4.8175   -2.1206   -3.8642 C.ar      1 <0>        -0.1488
     28 C24        -5.9432   -2.8687   -3.5602 C.ar      1 <0>         0.0982
     29 C25        -6.1810   -3.2714   -2.2561 C.ar      1 <0>        -0.1505
     30 C26        -5.2932   -2.9343   -1.2550 C.ar      1 <0>        -0.0790
     31 F2         -6.8120   -3.2061   -4.5383 F         1 <0>        -0.1399
     32 C27        -1.1961   -3.1243   -1.3299 C.3       1 <0>        -0.0583
     33 C28        -1.3771   -4.5767   -0.8842 C.3       1 <0>        -0.1451
     34 C29        -0.6515   -5.5041   -1.8611 C.3       1 <0>         0.1144
     35 H1         -1.0053   -5.3131   -2.8742 H         1 <0>         0.0992
     36 C30        -0.9353   -6.9606   -1.4879 C.3       1 <0>        -0.1865
     37 C31        -0.3136   -7.8859   -2.5358 C.3       1 <0>         0.1377
     38 H2         -0.6791   -7.6117   -3.5254 H         1 <0>         0.0929
     39 C32        -0.7020   -9.3343   -2.2319 C.3       1 <0>        -0.2193
     40 C33        -0.1934  -10.2318   -3.3304 C.2       1 <0>         0.4904
     41 O2          0.4226   -9.7571   -4.2694 O.co2     1 <0>        -0.6810
     42 O3         -0.3980  -11.4327   -3.2803 O.co2     1 <0>        -0.7131
     43 O4          1.1092   -7.7570   -2.5010 O.3       1 <0>        -0.5280
     44 O5          0.7549   -5.2605   -1.7938 O.3       1 <0>        -0.5418
     45 H3          1.7690   -0.6846    1.5860 H         1 <0>         0.0745
     46 H4          0.7469   -0.0711    0.2642 H         1 <0>         0.0554
     47 H5          0.2301    0.1299    1.9556 H         1 <0>         0.0915
     48 H6          0.5286   -2.5308    0.4898 H         1 <0>         0.1038
     49 H7         -0.5024   -1.8564    3.2825 H         1 <0>         0.0917
     50 H8         -0.5075   -3.4724    2.5364 H         1 <0>         0.0556
     51 H9          1.0365   -2.6709    2.9128 H         1 <0>         0.0745
     52 H10        -5.9486   -0.7783   -0.4634 H         1 <0>         0.1361
     53 H11        -7.8620    0.5074    0.3891 H         1 <0>         0.1289
     54 H12        -7.6501    1.8240    2.4550 H         1 <0>         0.1296
     55 H13        -5.5361    1.8522    3.7024 H         1 <0>         0.1291
     56 H14        -3.8315   -0.2932    5.4572 H         1 <0>         0.1345
     57 H15        -3.6535    1.0278    7.5252 H         1 <0>         0.1430
     58 H16        -2.9452    3.3826    7.4278 H         1 <0>         0.1423
     59 H17        -2.5779    3.1053    3.1846 H         1 <0>         0.1392
     60 H18        -3.0503   -1.1903   -3.1063 H         1 <0>         0.1329
     61 H19        -4.6364   -1.8082   -4.8821 H         1 <0>         0.1369
     62 H20        -7.0602   -3.8538   -2.0235 H         1 <0>         0.1366
     63 H21        -5.4766   -3.2531   -0.2396 H         1 <0>         0.1326
     64 H22        -1.6121   -2.9964   -2.3293 H         1 <0>         0.0949
     65 H23        -0.1344   -2.8782   -1.3440 H         1 <0>         0.0855
     66 H24        -0.9612   -4.7046    0.1152 H         1 <0>         0.0629
     67 H25        -2.4389   -4.8228   -0.8701 H         1 <0>         0.0771
     68 H26        -0.5031   -7.1761   -0.5107 H         1 <0>         0.0616
     69 H27        -2.0124   -7.1234   -1.4527 H         1 <0>         0.0742
     70 H28        -0.2613   -9.6370   -1.2821 H         1 <0>         0.0557
     71 H29        -1.7874   -9.4141   -2.1707 H         1 <0>         0.0609
     72 H30         1.5041   -7.9855   -1.6484 H         1 <0>         0.3495
     73 H31         1.1388   -5.4109   -0.9191 H         1 <0>         0.3637
@<TRIPOS>BOND
     1    1    2 1
     2    1   45 1
     3    1   46 1
     4    1   47 1
     5    2    3 1
     6    2    4 1
     7    2   48 1
     8    3   49 1
     9    3   50 1
    10    3   51 1
    11    4    8 1
    12    4    5 1
    13    5    6 2
    14    5   32 1
    15    6    7 1
    16    6   25 1
    17    7   13 1
    18    7    8 2
    19    8    9 1
    20    9   10 2
    21    9   11 am
    22   11   12 1
    23   11   18 1
    24   12   17 ar
    25   12   13 ar
    26   13   14 ar
    27   14   15 ar
    28   14   52 1
    29   15   16 ar
    30   15   53 1
    31   16   17 ar
    32   16   54 1
    33   17   55 1
    34   18   23 ar
    35   18   19 ar
    36   19   20 ar
    37   19   56 1
    38   20   21 ar
    39   20   57 1
    40   21   22 ar
    41   21   58 1
    42   22   23 ar
    43   22   24 1
    44   23   59 1
    45   25   30 ar
    46   25   26 ar
    47   26   27 ar
    48   26   60 1
    49   27   28 ar
    50   27   61 1
    51   28   29 ar
    52   28   31 1
    53   29   30 ar
    54   29   62 1
    55   30   63 1
    56   32   33 1
    57   32   64 1
    58   32   65 1
    59   33   34 1
    60   33   66 1
    61   33   67 1
    62   34   35 1
    63   34   36 1
    64   34   44 1
    65   36   37 1
    66   36   68 1
    67   36   69 1
    68   37   38 1
    69   37   39 1
    70   37   43 1
    71   39   40 1
    72   39   70 1
    73   39   71 1
    74   40   41 2
    75   40   42 1
    76   43   72 1
    77   44   73 1
@<TRIPOS>MOLECULE
CHEMBL318707
   58    60     0     0     0
SMALL
USER_CHARGES

@<TRIPOS>ATOM
      1 C1         -0.1336    1.6585    0.0707 C.3       1 <0>        -0.1460
      2 C2         -0.0559    0.1320    0.1407 C.3       1 <0>        -0.0567
      3 C3          0.6238   -0.2847    1.4465 C.3       1 <0>        -0.1452
      4 C4         -1.4474   -0.4445    0.0925 C.ar      1 <0>        -0.0727
      5 C5         -2.3662   -0.1062    1.0658 C.ar      1 <0>        -0.0930
      6 C6         -3.6524   -0.6383    1.0223 C.ar      1 <0>        -0.0612
      7 C7         -4.0054   -1.5138   -0.0094 C.ar      1 <0>         0.1024
      8 C8         -3.0736   -1.8448   -0.9795 C.ar      1 <0>        -0.0797
      9 C9         -1.8013   -1.3064   -0.9300 C.ar      1 <0>        -0.0979
     10 C10        -3.4490   -2.7882   -2.0931 C.3       1 <0>        -0.0609
     11 C11        -3.2900   -2.0777   -3.4388 C.3       1 <0>        -0.1409
     12 C12        -2.5348   -4.0144   -2.0527 C.3       1 <0>        -0.1423
     13 O1         -5.2576   -2.0383   -0.0598 O.3       1 <0>        -0.3167
     14 C13        -5.4795   -3.2574    0.6519 C.3       1 <0>         0.0728
     15 C14        -6.9077   -3.7437    0.3976 C.3       1 <0>         0.1150
     16 C15        -7.1856   -4.9830    1.2525 C.3       1 <0>        -0.1518
     17 C16        -8.6018   -5.4915    0.9645 C.3       1 <0>         0.1071
     18 H1         -8.7987   -6.3815    1.5621 H         1 <0>         0.0832
     19 C17        -8.7105   -5.8386   -0.5258 C.3       1 <0>        -0.2056
     20 C18        -8.2350   -4.6464   -1.3269 C.2       1 <0>         0.4952
     21 O2         -8.8897   -4.2141   -2.2458 O.2       1 <0>        -0.4488
     22 O3         -7.0588   -4.0804   -0.9860 O.3       1 <0>        -0.3607
     23 O4         -9.5513   -4.4750    1.2922 O.3       1 <0>        -0.5626
     24 C19        -4.6432   -0.2785    2.0658 C.ar      1 <0>        -0.0566
     25 C20        -5.8750    0.2631    1.7029 C.ar      1 <0>        -0.0593
     26 C21        -6.7937    0.5964    2.6769 C.ar      1 <0>        -0.1530
     27 C22        -6.4931    0.3934    4.0141 C.ar      1 <0>         0.1019
     28 C23        -5.2698   -0.1448    4.3794 C.ar      1 <0>        -0.1550
     29 C24        -4.3474   -0.4863    3.4118 C.ar      1 <0>        -0.0797
     30 F1         -7.3953    0.7216    4.9645 F         1 <0>        -0.1388
     31 H2          0.8729    2.0755    0.1056 H         1 <0>         0.0596
     32 H3         -0.6179    1.9553   -0.8596 H         1 <0>         0.0569
     33 H4         -0.7111    2.0320    0.9163 H         1 <0>         0.0570
     34 H5          0.5216   -0.2415   -0.7049 H         1 <0>         0.0789
     35 H6          0.6792   -1.3722    1.4964 H         1 <0>         0.0562
     36 H7          1.6303    0.1323    1.4814 H         1 <0>         0.0595
     37 H8          0.0463    0.0889    2.2921 H         1 <0>         0.0567
     38 H9         -2.0877    0.5702    1.8604 H         1 <0>         0.1274
     39 H10        -1.0790   -1.5634   -1.6907 H         1 <0>         0.1266
     40 H11        -4.4850   -3.1032   -1.9687 H         1 <0>         0.0919
     41 H12        -2.2540   -1.7627   -3.5632 H         1 <0>         0.0545
     42 H13        -3.5616   -2.7601   -4.2443 H         1 <0>         0.0589
     43 H14        -3.9413   -1.2042   -3.4676 H         1 <0>         0.0567
     44 H15        -2.6480   -4.5206   -1.0940 H         1 <0>         0.0516
     45 H16        -2.8063   -4.6968   -2.8581 H         1 <0>         0.0595
     46 H17        -1.4987   -3.6994   -2.1771 H         1 <0>         0.0560
     47 H18        -4.7721   -4.0123    0.3089 H         1 <0>         0.0671
     48 H19        -5.3388   -3.0858    1.7191 H         1 <0>         0.0772
     49 H20        -7.6128   -2.9548    0.6592 H         1 <0>         0.0954
     50 H21        -6.4630   -5.7620    1.0095 H         1 <0>         0.0989
     51 H22        -7.1000   -4.7234    2.3077 H         1 <0>         0.1012
     52 H23        -8.0856   -6.7036   -0.7481 H         1 <0>         0.1192
     53 H24        -9.7479   -6.0599   -0.7767 H         1 <0>         0.1094
     54 H25       -10.4706   -4.7299    1.1341 H         1 <0>         0.3878
     55 H26        -6.1100    0.4220    0.6608 H         1 <0>         0.1359
     56 H27        -7.7483    1.0165    2.3966 H         1 <0>         0.1374
     57 H28        -5.0396   -0.3013    5.4229 H         1 <0>         0.1369
     58 H29        -3.3959   -0.9102    3.6972 H         1 <0>         0.1328
@<TRIPOS>BOND
     1    1    2 1
     2    1   31 1
     3    1   32 1
     4    1   33 1
     5    2    3 1
     6    2    4 1
     7    2   34 1
     8    3   35 1
     9    3   36 1
    10    3   37 1
    11    4    9 ar
    12    4    5 ar
    13    5    6 ar
    14    5   38 1
    15    6    7 ar
    16    6   24 1
    17    7    8 ar
    18    7   13 1
    19    8    9 ar
    20    8   10 1
    21    9   39 1
    22   10   11 1
    23   10   12 1
    24   10   40 1
    25   11   41 1
    26   11   42 1
    27   11   43 1
    28   12   44 1
    29   12   45 1
    30   12   46 1
    31   13   14 1
    32   14   15 1
    33   14   47 1
    34   14   48 1
    35   15   22 1
    36   15   16 1
    37   15   49 1
    38   16   17 1
    39   16   50 1
    40   16   51 1
    41   17   18 1
    42   17   19 1
    43   17   23 1
    44   19   20 1
    45   19   52 1
    46   19   53 1
    47   20   21 2
    48   20   22 1
    49   23   54 1
    50   24   29 ar
    51   24   25 ar
    52   25   26 ar
    53   25   55 1
    54   26   27 ar
    55   26   56 1
    56   27   28 ar
    57   27   30 1
    58   28   29 ar
    59   28   57 1
    60   29   58 1
@<TRIPOS>MOLECULE
CHEMBL318707__1
   58    60     0     0     0
SMALL
USER_CHARGES

@<TRIPOS>ATOM
      1 C1         -0.0511    1.5489   -0.0209 C.3       1 <0>        -0.1462
      2 C2         -0.0061    0.0211    0.0467 C.3       1 <0>        -0.0567
      3 C3          0.6917   -0.4119    1.3377 C.3       1 <0>        -0.1455
      4 C4         -1.4109   -0.5242    0.0278 C.ar      1 <0>        -0.0717
      5 C5         -2.3010   -0.1664    1.0205 C.ar      1 <0>        -0.0926
      6 C6         -3.5994   -0.6696    1.0040 C.ar      1 <0>        -0.0563
      7 C7         -3.9937   -1.5361   -0.0203 C.ar      1 <0>         0.1010
      8 C8         -3.0902   -1.8869   -1.0102 C.ar      1 <0>        -0.0833
      9 C9         -1.8055   -1.3771   -0.9874 C.ar      1 <0>        -0.0982
     10 C10        -3.5101   -2.8207   -2.1160 C.3       1 <0>        -0.0574
     11 C11        -3.3638   -2.1127   -3.4644 C.3       1 <0>        -0.1427
     12 C12        -2.6228   -4.0670   -2.0955 C.3       1 <0>        -0.1451
     13 O1         -5.2581   -2.0324   -0.0444 O.3       1 <0>        -0.3168
     14 C13        -5.4953   -3.2391    0.6833 C.3       1 <0>         0.0735
     15 C14        -6.9270   -3.7150    0.4289 C.3       1 <0>         0.1142
     16 C15        -7.1445   -5.0685    1.1106 C.3       1 <0>        -0.1543
     17 C16        -8.5909   -5.5221    0.8888 C.3       1 <0>         0.1124
     18 H1         -8.7818   -5.6241   -0.1795 H         1 <0>         0.0699
     19 C17        -9.5371   -4.4703    1.4817 C.3       1 <0>        -0.2060
     20 C18        -9.1510   -3.1171    0.9256 C.2       1 <0>         0.4906
     21 O2         -9.9837   -2.3765    0.4588 O.2       1 <0>        -0.4442
     22 O3         -7.8503   -2.7613    0.9661 O.3       1 <0>        -0.3541
     23 O4         -8.8029   -6.7788    1.5351 O.3       1 <0>        -0.5547
     24 C19        -4.5596   -0.2887    2.0685 C.ar      1 <0>        -0.0596
     25 C20        -5.7862    0.2810    1.7320 C.ar      1 <0>        -0.0497
     26 C21        -6.6764    0.6338    2.7254 C.ar      1 <0>        -0.1492
     27 C22        -6.3523    0.4225    4.0558 C.ar      1 <0>         0.1019
     28 C23        -5.1341   -0.1436    4.3949 C.ar      1 <0>        -0.1565
     29 C24        -4.2402   -0.5047    3.4078 C.ar      1 <0>        -0.0797
     30 F1         -7.2267    0.7699    5.0253 F         1 <0>        -0.1398
     31 H2          0.9649    1.9433   -0.0072 H         1 <0>         0.0597
     32 H3         -0.5482    1.8574   -0.9406 H         1 <0>         0.0569
     33 H4         -0.6021    1.9345    0.8369 H         1 <0>         0.0573
     34 H5          0.5449   -0.3645   -0.8111 H         1 <0>         0.0790
     35 H6          0.7238   -1.5004    1.3859 H         1 <0>         0.0563
     36 H7          1.7078   -0.0175    1.3514 H         1 <0>         0.0597
     37 H8          0.1407   -0.0264    2.1955 H         1 <0>         0.0570
     38 H9         -1.9906    0.5029    1.8093 H         1 <0>         0.1278
     39 H10        -1.1053   -1.6494   -1.7633 H         1 <0>         0.1267
     40 H11        -4.5500   -3.1126   -1.9698 H         1 <0>         0.0833
     41 H12        -2.3239   -1.8208   -3.6106 H         1 <0>         0.0564
     42 H13        -3.6675   -2.7881   -4.2642 H         1 <0>         0.0592
     43 H14        -3.9959   -1.2248   -3.4790 H         1 <0>         0.0574
     44 H15        -2.7270   -4.5714   -1.1348 H         1 <0>         0.0531
     45 H16        -2.9265   -4.7424   -2.8953 H         1 <0>         0.0603
     46 H17        -1.5829   -3.7751   -2.2417 H         1 <0>         0.0581
     47 H18        -4.7938   -4.0057    0.3543 H         1 <0>         0.0797
     48 H19        -5.3579   -3.0539    1.7486 H         1 <0>         0.0701
     49 H20        -7.0916   -3.8165   -0.6438 H         1 <0>         0.0896
     50 H21        -6.4630   -5.8043    0.6837 H         1 <0>         0.1021
     51 H22        -6.9534   -4.9723    2.1794 H         1 <0>         0.0943
     52 H23       -10.5651   -4.7023    1.2034 H         1 <0>         0.1089
     53 H24        -9.4428   -4.4618    2.5676 H         1 <0>         0.1183
     54 H25        -9.6998   -7.1262    1.4352 H         1 <0>         0.3874
     55 H26        -6.0395    0.4464    0.6952 H         1 <0>         0.1345
     56 H27        -7.6270    1.0756    2.4656 H         1 <0>         0.1359
     57 H28        -4.8856   -0.3065    5.4332 H         1 <0>         0.1359
     58 H29        -3.2928   -0.9503    3.6728 H         1 <0>         0.1316
@<TRIPOS>BOND
     1    1    2 1
     2    1   31 1
     3    1   32 1
     4    1   33 1
     5    2    3 1
     6    2    4 1
     7    2   34 1
     8    3   35 1
     9    3   36 1
    10    3   37 1
    11    4    9 ar
    12    4    5 ar
    13    5    6 ar
    14    5   38 1
    15    6    7 ar
    16    6   24 1
    17    7    8 ar
    18    7   13 1
    19    8    9 ar
    20    8   10 1
    21    9   39 1
    22   10   11 1
    23   10   12 1
    24   10   40 1
    25   11   41 1
    26   11   42 1
    27   11   43 1
    28   12   44 1
    29   12   45 1
    30   12   46 1
    31   13   14 1
    32   14   15 1
    33   14   47 1
    34   14   48 1
    35   15   22 1
    36   15   16 1
    37   15   49 1
    38   16   17 1
    39   16   50 1
    40   16   51 1
    41   17   18 1
    42   17   19 1
    43   17   23 1
    44   19   20 1
    45   19   52 1
    46   19   53 1
    47   20   21 2
    48   20   22 1
    49   23   54 1
    50   24   29 ar
    51   24   25 ar
    52   25   26 ar
    53   25   55 1
    54   26   27 ar
    55   26   56 1
    56   27   28 ar
    57   27   30 1
    58   28   29 ar
    59   28   57 1
    60   29   58 1
@<TRIPOS>MOLECULE
CHEMBL253054
   73    76     0     0     0
SMALL
USER_CHARGES

@<TRIPOS>ATOM
      1 C1          0.2438    1.1217    0.1293 C.3       1 <0>        -0.1618
      2 C2          0.0150   -0.3906    0.1672 C.3       1 <0>        -0.0707
      3 C3          0.7165   -0.9820    1.3916 C.3       1 <0>        -0.1518
      4 C4         -1.4629   -0.6731    0.2498 C.2       1 <0>         0.1730
      5 C5         -2.1543   -1.4712   -0.5866 C.2       1 <0>        -0.7371
      6 C6         -3.5056   -1.4666   -0.1657 C.2       1 <0>        -0.0223
      7 C7         -3.5773   -0.6399    0.9426 C.2       1 <0>         0.0589
      8 N1         -2.3148   -0.1665    1.1870 N.pl3     1 <0>        -0.4122
      9 C8         -1.9413    0.7395    2.2760 C.3       1 <0>         0.0840
     10 C9         -2.1919    2.1859    1.8448 C.3       1 <0>        -0.1773
     11 C10        -1.7481    3.1347    2.9600 C.3       1 <0>         0.1184
     12 H1         -2.2513    2.8647    3.8885 H         1 <0>         0.1000
     13 C11        -2.1124    4.5719    2.5819 C.3       1 <0>        -0.1861
     14 C12        -1.7826    5.5053    3.7485 C.3       1 <0>         0.1388
     15 H2         -2.2845    5.1524    4.6494 H         1 <0>         0.0929
     16 C13        -2.2607    6.9210    3.4197 C.3       1 <0>        -0.2197
     17 C14        -2.0475    7.8135    4.6151 C.2       1 <0>         0.4909
     18 O1         -1.5585    7.3594    5.6355 O.co2     1 <0>        -0.6813
     19 O2         -2.3640    8.9897    4.5619 O.co2     1 <0>        -0.7120
     20 O3         -0.3700    5.5176    3.9640 O.3       1 <0>        -0.5277
     21 O4         -0.3339    3.0328    3.1375 O.3       1 <0>        -0.5402
     22 C15        -4.7919   -0.3295    1.7227 C.ar      1 <0>        -0.0269
     23 C16        -4.7511   -0.3437    3.1187 C.ar      1 <0>        -0.0859
     24 C17        -5.8887   -0.0530    3.8420 C.ar      1 <0>        -0.1472
     25 C18        -7.0709    0.2523    3.1863 C.ar      1 <0>         0.1049
     26 C19        -7.1173    0.2678    1.8012 C.ar      1 <0>        -0.1470
     27 C20        -5.9846   -0.0151    1.0674 C.ar      1 <0>        -0.0612
     28 F1         -8.1825    0.5353    3.9000 F         1 <0>        -0.1370
     29 C21        -4.6279   -2.2048   -0.7911 C.ar      1 <0>        -0.0342
     30 C22        -5.0347   -1.8928   -2.0879 C.ar      1 <0>        -0.0607
     31 C23        -6.0802   -2.5840   -2.6652 C.ar      1 <0>        -0.1212
     32 C24        -6.7248   -3.5845   -1.9598 C.ar      1 <0>        -0.1150
     33 C25        -6.3261   -3.8982   -0.6728 C.ar      1 <0>        -0.1282
     34 C26        -5.2778   -3.2182   -0.0872 C.ar      1 <0>        -0.0989
     35 S1         -1.4953   -2.3601   -1.9578 S.o2      1 <0>         2.7314
     36 O5         -2.5765   -2.5887   -2.8511 O.2       1 <0>        -0.9454
     37 O6         -0.3121   -1.6793   -2.3524 O.2       1 <0>        -0.9604
     38 N2         -1.0225   -3.8449   -1.3973 N.pl3     1 <0>        -1.0387
     39 C27         0.2057   -4.4200   -0.8284 C.3       1 <0>         0.1223
     40 C28        -0.2451   -5.7827   -1.3724 C.3       1 <0>        -0.1519
     41 C29        -1.6480   -5.1669   -1.2432 C.3       1 <0>         0.1275
     42 H3          1.3042    1.3252   -0.0204 H         1 <0>         0.0720
     43 H4         -0.3286    1.5554   -0.6907 H         1 <0>         0.0608
     44 H5         -0.0811    1.5621    1.0720 H         1 <0>         0.0689
     45 H6          0.4213   -0.8423   -0.7378 H         1 <0>         0.1300
     46 H7          0.2364   -0.6140    2.2984 H         1 <0>         0.0586
     47 H8          0.6478   -2.0693    1.3598 H         1 <0>         0.0585
     48 H9          1.7649   -0.6839    1.3889 H         1 <0>         0.0733
     49 H10        -2.5409    0.5142    3.1579 H         1 <0>         0.0962
     50 H11        -0.8851    0.6084    2.5116 H         1 <0>         0.1139
     51 H12        -1.6237    2.3987    0.9392 H         1 <0>         0.0827
     52 H13        -3.2547    2.3276    1.6486 H         1 <0>         0.0795
     53 H14        -1.5414    4.8723    1.7035 H         1 <0>         0.0643
     54 H15        -3.1780    4.6302    2.3600 H         1 <0>         0.0745
     55 H16        -1.6950    7.3078    2.5720 H         1 <0>         0.0566
     56 H17        -3.3211    6.8973    3.1685 H         1 <0>         0.0608
     57 H18         0.1415    5.8217    3.2018 H         1 <0>         0.3504
     58 H19         0.1788    3.2592    2.3495 H         1 <0>         0.3662
     59 H20        -3.8306   -0.5821    3.6307 H         1 <0>         0.1310
     60 H21        -5.8583   -0.0636    4.9215 H         1 <0>         0.1397
     61 H22        -8.0415    0.5061    1.2956 H         1 <0>         0.1393
     62 H23        -6.0208    0.0017   -0.0118 H         1 <0>         0.1357
     63 H24        -4.5327   -1.1115   -2.6393 H         1 <0>         0.1219
     64 H25        -6.3962   -2.3433   -3.6695 H         1 <0>         0.1210
     65 H26        -7.5428   -4.1225   -2.4156 H         1 <0>         0.1183
     66 H27        -6.8333   -4.6799   -0.1269 H         1 <0>         0.1192
     67 H28        -4.9645   -3.4669    0.9159 H         1 <0>         0.1162
     68 H29         1.1168   -4.0461   -1.2953 H         1 <0>         0.0817
     69 H30         0.2411   -4.3774    0.2602 H         1 <0>         0.0817
     70 H31         0.0672   -5.9800   -2.3979 H         1 <0>         0.0950
     71 H32        -0.0615   -6.6171   -0.6956 H         1 <0>         0.0871
     72 H33        -2.1012   -5.3212   -0.2639 H         1 <0>         0.0814
     73 H34        -2.3161   -5.4293   -2.0635 H         1 <0>         0.0808
@<TRIPOS>BOND
     1    1    2 1
     2    1   42 1
     3    1   43 1
     4    1   44 1
     5    2    3 1
     6    2    4 1
     7    2   45 1
     8    3   46 1
     9    3   47 1
    10    3   48 1
    11    4    8 1
    12    4    5 2
    13    5    6 1
    14    5   35 1
    15    6    7 2
    16    6   29 1
    17    7    8 1
    18    7   22 1
    19    8    9 1
    20    9   10 1
    21    9   49 1
    22    9   50 1
    23   10   11 1
    24   10   51 1
    25   10   52 1
    26   11   12 1
    27   11   13 1
    28   11   21 1
    29   13   14 1
    30   13   53 1
    31   13   54 1
    32   14   15 1
    33   14   16 1
    34   14   20 1
    35   16   17 1
    36   16   55 1
    37   16   56 1
    38   17   18 2
    39   17   19 1
    40   20   57 1
    41   21   58 1
    42   22   27 ar
    43   22   23 ar
    44   23   24 ar
    45   23   59 1
    46   24   25 ar
    47   24   60 1
    48   25   26 ar
    49   25   28 1
    50   26   27 ar
    51   26   61 1
    52   27   62 1
    53   29   34 ar
    54   29   30 ar
    55   30   31 ar
    56   30   63 1
    57   31   32 ar
    58   31   64 1
    59   32   33 ar
    60   32   65 1
    61   33   34 ar
    62   33   66 1
    63   34   67 1
    64   35   36 2
    65   35   37 2
    66   35   38 1
    67   38   41 1
    68   38   39 1
    69   39   40 1
    70   39   68 1
    71   39   69 1
    72   40   41 1
    73   40   70 1
    74   40   71 1
    75   41   72 1
    76   41   73 1
@<TRIPOS>MOLECULE
CHEMBL400874
   79    82     0     0     0
SMALL
USER_CHARGES

@<TRIPOS>ATOM
      1 C1         -0.2887    1.5180   -0.0921 C.3       1 <0>        -0.1702
      2 C2         -0.0557    0.0078   -0.0155 C.3       1 <0>         0.1189
      3 C3          0.6075   -0.3389    1.3189 C.3       1 <0>        -0.1725
      4 N1         -1.3396   -0.6902   -0.1186 N.pl3     1 <0>        -0.4014
      5 C4         -1.6839   -1.5595   -1.0987 C.2       1 <0>         0.0737
      6 C5         -2.9493   -2.0110   -0.8693 C.2       1 <0>        -0.1215
      7 C6         -3.4149   -1.3883    0.3170 C.2       1 <0>        -0.0598
      8 C7         -2.3855   -0.5714    0.7684 C.2       1 <0>        -0.0307
      9 C8         -2.4102    0.2669    1.9686 C.2       1 <0>         0.6048
     10 O1         -2.7855    1.4226    1.8961 O.2       1 <0>        -0.5177
     11 N2         -2.0173   -0.2411    3.1535 N.am      1 <0>        -0.7181
     12 C9         -2.1349    0.5651    4.3711 C.3       1 <0>         0.1560
     13 C10        -1.6312   -0.2282    5.5493 C.ar      1 <0>        -0.0808
     14 C11        -2.5043   -1.0285    6.2645 C.ar      1 <0>        -0.0984
     15 C12        -2.0500   -1.7573    7.3441 C.ar      1 <0>        -0.0705
     16 C13        -0.7055   -1.6863    7.7141 C.ar      1 <0>        -0.0182
     17 C14         0.1702   -0.8770    6.9876 C.ar      1 <0>        -0.0707
     18 C15        -0.2965   -0.1572    5.9073 C.ar      1 <0>        -0.0995
     19 C16        -0.2269   -2.4397    8.8340 C.1       1 <0>         0.2484
     20 N3          0.1527   -3.0374    9.7223 N.1       1 <0>        -0.4085
     21 C17        -4.7386   -1.5759    0.9534 C.ar      1 <0>        -0.0095
     22 C18        -5.8976   -1.1701    0.2916 C.ar      1 <0>        -0.0950
     23 C19        -7.1282   -1.3477    0.8899 C.ar      1 <0>        -0.1182
     24 C20        -7.2140   -1.9264    2.1436 C.ar      1 <0>        -0.1213
     25 C21        -6.0681   -2.3305    2.8052 C.ar      1 <0>        -0.1203
     26 C22        -4.8322   -2.1644    2.2147 C.ar      1 <0>        -0.1074
     27 C23        -3.7019   -2.9770   -1.7069 C.ar      1 <0>        -0.0089
     28 C24        -4.0563   -2.6421   -3.0124 C.ar      1 <0>        -0.0815
     29 C25        -4.7563   -3.5436   -3.7879 C.ar      1 <0>        -0.1505
     30 C26        -5.1071   -4.7798   -3.2703 C.ar      1 <0>         0.0949
     31 C27        -4.7572   -5.1168   -1.9729 C.ar      1 <0>        -0.1509
     32 C28        -4.0514   -4.2241   -1.1925 C.ar      1 <0>        -0.0731
     33 F1         -5.7928   -5.6593   -4.0329 F         1 <0>        -0.1419
     34 C29        -0.8084   -1.9623   -2.2573 C.3       1 <0>        -0.0540
     35 C30         0.0191   -3.1892   -1.8688 C.3       1 <0>        -0.1429
     36 C31         0.9080   -3.5981   -3.0450 C.3       1 <0>         0.1134
     37 H1          0.2909   -3.7526   -3.9302 H         1 <0>         0.0983
     38 C32         1.6422   -4.8960   -2.7023 C.3       1 <0>        -0.1858
     39 C33         2.4336   -5.3716   -3.9223 C.3       1 <0>         0.1375
     40 H2          1.7633   -5.4641   -4.7768 H         1 <0>         0.0928
     41 C34         3.0666   -6.7316   -3.6210 C.3       1 <0>        -0.2194
     42 C35         3.7428   -7.2567   -4.8612 C.2       1 <0>         0.4905
     43 O2          3.7206   -6.6037   -5.8906 O.co2     1 <0>        -0.6810
     44 O3          4.3122   -8.3345   -4.8352 O.co2     1 <0>        -0.7132
     45 O4          3.4605   -4.4244   -4.2228 O.3       1 <0>        -0.5278
     46 O5          1.8613   -2.5655   -3.3033 O.3       1 <0>        -0.5415
     47 H3          0.6713    2.0316   -0.1441 H         1 <0>         0.0764
     48 H4         -0.8739    1.7507   -0.9817 H         1 <0>         0.0666
     49 H5         -0.8295    1.8476    0.7951 H         1 <0>         0.0728
     50 H6          0.5929   -0.3018   -0.8349 H         1 <0>         0.1098
     51 H7         -0.0004    0.0459    2.1377 H         1 <0>         0.0676
     52 H8          0.6964   -1.4215    1.4101 H         1 <0>         0.0674
     53 H9          1.5992    0.1118    1.3597 H         1 <0>         0.0806
     54 H10        -1.6568   -1.1404    3.2002 H         1 <0>         0.4051
     55 H11        -1.5417    1.4733    4.2643 H         1 <0>         0.0834
     56 H12        -3.1798    0.8304    4.5318 H         1 <0>         0.0839
     57 H13        -3.5440   -1.0825    5.9772 H         1 <0>         0.1377
     58 H14        -2.7327   -2.3811    7.9019 H         1 <0>         0.1362
     59 H15         1.2114   -0.8175    7.2686 H         1 <0>         0.1362
     60 H16         0.3805    0.4660    5.3420 H         1 <0>         0.1365
     61 H17        -5.8319   -0.7176   -0.6868 H         1 <0>         0.1205
     62 H18        -8.0263   -1.0339    0.3786 H         1 <0>         0.1207
     63 H19        -8.1795   -2.0629    2.6079 H         1 <0>         0.1187
     64 H20        -6.1415   -2.7810    3.7840 H         1 <0>         0.1199
     65 H21        -3.9388   -2.4847    2.7300 H         1 <0>         0.1169
     66 H22        -3.7839   -1.6782   -3.4164 H         1 <0>         0.1310
     67 H23        -5.0314   -3.2849   -4.7997 H         1 <0>         0.1347
     68 H24        -5.0333   -6.0814   -1.5732 H         1 <0>         0.1333
     69 H25        -3.7745   -4.4896   -0.1829 H         1 <0>         0.1287
     70 H26        -1.4326   -2.2027   -3.1179 H         1 <0>         0.0902
     71 H27        -0.1405   -1.1392   -2.5114 H         1 <0>         0.0803
     72 H28         0.6433   -2.9487   -1.0081 H         1 <0>         0.0607
     73 H29        -0.6488   -4.0123   -1.6146 H         1 <0>         0.0756
     74 H30         2.3260   -4.7183   -1.8723 H         1 <0>         0.0610
     75 H31         0.9176   -5.6594   -2.4191 H         1 <0>         0.0738
     76 H32         3.8027   -6.6213   -2.8248 H         1 <0>         0.0555
     77 H33         2.2922   -7.4309   -3.3057 H         1 <0>         0.0608
     78 H34         4.0949   -4.2912   -3.5053 H         1 <0>         0.3490
     79 H35         2.4458   -2.3741   -2.5570 H         1 <0>         0.3624
@<TRIPOS>BOND
     1    1    2 1
     2    1   47 1
     3    1   48 1
     4    1   49 1
     5    2    3 1
     6    2    4 1
     7    2   50 1
     8    3   51 1
     9    3   52 1
    10    3   53 1
    11    4    8 1
    12    4    5 1
    13    5    6 2
    14    5   34 1
    15    6    7 1
    16    6   27 1
    17    7    8 2
    18    7   21 1
    19    8    9 1
    20    9   10 2
    21    9   11 am
    22   11   12 1
    23   11   54 1
    24   12   13 1
    25   12   55 1
    26   12   56 1
    27   13   18 ar
    28   13   14 ar
    29   14   15 ar
    30   14   57 1
    31   15   16 ar
    32   15   58 1
    33   16   17 ar
    34   16   19 1
    35   17   18 ar
    36   17   59 1
    37   18   60 1
    38   19   20 3
    39   21   26 ar
    40   21   22 ar
    41   22   23 ar
    42   22   61 1
    43   23   24 ar
    44   23   62 1
    45   24   25 ar
    46   24   63 1
    47   25   26 ar
    48   25   64 1
    49   26   65 1
    50   27   32 ar
    51   27   28 ar
    52   28   29 ar
    53   28   66 1
    54   29   30 ar
    55   29   67 1
    56   30   31 ar
    57   30   33 1
    58   31   32 ar
    59   31   68 1
    60   32   69 1
    61   34   35 1
    62   34   70 1
    63   34   71 1
    64   35   36 1
    65   35   72 1
    66   35   73 1
    67   36   37 1
    68   36   38 1
    69   36   46 1
    70   38   39 1
    71   38   74 1
    72   38   75 1
    73   39   40 1
    74   39   41 1
    75   39   45 1
    76   41   42 1
    77   41   76 1
    78   41   77 1
    79   42   43 2
    80   42   44 1
    81   45   78 1
    82   46   79 1
@<TRIPOS>MOLECULE
CHEMBL398239
   77    80     0     0     0
SMALL
USER_CHARGES

@<TRIPOS>ATOM
      1 C1          1.0591   -0.3613    8.8500 C.3       1 <0>        -0.0814
      2 C2          0.7582   -0.5300    7.3830 C.2       1 <0>         0.0607
      3 C3          0.7310    0.5317    6.5373 C.2       1 <0>        -0.2243
      4 S1          0.3354   -0.2833    4.9985 S.3       1 <0>         0.1267
      5 C4          0.2490   -1.8579    5.5867 C.2       1 <0>         0.0257
      6 N1          0.5147   -1.7157    6.8612 N.2       1 <0>        -0.4925
      7 C5         -0.0548   -3.1249    4.8293 C.3       1 <0>         0.2126
      8 N2         -1.4998   -3.3654    4.8397 N.am      1 <0>        -0.7185
      9 C6         -2.0070   -4.4491    4.2194 C.2       1 <0>         0.6086
     10 O1         -1.2762   -5.1802    3.5765 O.2       1 <0>        -0.5128
     11 C7         -3.4371   -4.7472    4.3188 C.2       1 <0>        -0.0327
     12 C8         -4.0338   -5.6101    5.2297 C.2       1 <0>        -0.0539
     13 C9         -5.4260   -5.5879    4.9588 C.2       1 <0>        -0.1221
     14 C10        -5.6263   -4.7326    3.9166 C.2       1 <0>         0.0748
     15 N3         -4.4341   -4.2186    3.5304 N.pl3     1 <0>        -0.4030
     16 C11        -4.2366   -3.2559    2.4440 C.3       1 <0>         0.1188
     17 C12        -3.6724   -1.9528    3.0136 C.3       1 <0>        -0.1741
     18 C13        -3.2546   -3.8336    1.4229 C.3       1 <0>        -0.1708
     19 C14        -6.9609   -4.4062    3.2975 C.3       1 <0>        -0.0523
     20 C15        -7.2497   -5.3885    2.1605 C.3       1 <0>        -0.1476
     21 C16        -8.6047   -5.0570    1.5320 C.3       1 <0>         0.1139
     22 H1         -9.3722   -5.0502    2.3059 H         1 <0>         0.0987
     23 C17        -8.9507   -6.1126    0.4799 C.3       1 <0>        -0.1867
     24 C18       -10.3586   -5.8526   -0.0596 C.3       1 <0>         0.1377
     25 H2        -11.0649   -5.8179    0.7699 H         1 <0>         0.0928
     26 C19       -10.7531   -6.9775   -1.0186 C.3       1 <0>        -0.2194
     27 C20       -12.1831   -6.7876   -1.4546 C.2       1 <0>         0.4904
     28 O2        -12.8271   -5.8403   -1.0369 O.co2     1 <0>        -0.6812
     29 O3        -12.6961   -7.5813   -2.2249 O.co2     1 <0>        -0.7132
     30 O4        -10.3792   -4.6045   -0.7552 O.3       1 <0>        -0.5281
     31 O5         -8.5407   -3.7706    0.9131 O.3       1 <0>        -0.5418
     32 C21        -6.4724   -6.3552    5.6781 C.ar      1 <0>        -0.0101
     33 C22        -7.1939   -7.3452    5.0138 C.ar      1 <0>        -0.0794
     34 C23        -8.1659   -8.0567    5.6868 C.ar      1 <0>        -0.1496
     35 C24        -8.4253   -7.7877    7.0209 C.ar      1 <0>         0.0951
     36 C25        -7.7105   -6.8044    7.6852 C.ar      1 <0>        -0.1526
     37 C26        -6.7327   -6.0919    7.0216 C.ar      1 <0>        -0.0739
     38 F1         -9.3785   -8.4861    7.6758 F         1 <0>        -0.1418
     39 C27        -3.3496   -6.3992    6.2792 C.ar      1 <0>        -0.0118
     40 C28        -3.3454   -7.7928    6.2166 C.ar      1 <0>        -0.0942
     41 C29        -2.7056   -8.5225    7.1973 C.ar      1 <0>        -0.1185
     42 C30        -2.0692   -7.8750    8.2413 C.ar      1 <0>        -0.1208
     43 C31        -2.0703   -6.4931    8.3092 C.ar      1 <0>        -0.1188
     44 C32        -2.7017   -5.7520    7.3314 C.ar      1 <0>        -0.1059
     45 H3          2.1339   -0.4425    9.0120 H         1 <0>         0.0758
     46 H4          0.7147    0.6183    9.1812 H         1 <0>         0.0758
     47 H5          0.5464   -1.1378    9.4176 H         1 <0>         0.0763
     48 H6          0.9013    1.5789    6.7392 H         1 <0>         0.1983
     49 H7          0.2894   -3.0243    3.8000 H         1 <0>         0.0985
     50 H8          0.4565   -3.9628    5.3031 H         1 <0>         0.1043
     51 H9         -2.0916   -2.7448    5.2930 H         1 <0>         0.4055
     52 H10        -5.1913   -3.0563    1.9573 H         1 <0>         0.1112
     53 H11        -2.6683   -2.1295    3.3991 H         1 <0>         0.0652
     54 H12        -3.6320   -1.1996    2.2266 H         1 <0>         0.0818
     55 H13        -4.3148   -1.6008    3.8208 H         1 <0>         0.0679
     56 H14        -3.6471   -4.7723    1.0320 H         1 <0>         0.0680
     57 H15        -3.1232   -3.1258    0.6044 H         1 <0>         0.0783
     58 H16        -2.2937   -4.0141    1.9047 H         1 <0>         0.0705
     59 H17        -7.7416   -4.4862    4.0539 H         1 <0>         0.0904
     60 H18        -6.9398   -3.3902    2.9033 H         1 <0>         0.0804
     61 H19        -6.4689   -5.3084    1.4041 H         1 <0>         0.0623
     62 H20        -7.2708   -6.4045    2.5548 H         1 <0>         0.0763
     63 H21        -8.2324   -6.0591   -0.3383 H         1 <0>         0.0616
     64 H22        -8.9123   -7.1033    0.9328 H         1 <0>         0.0740
     65 H23       -10.1011   -6.9558   -1.8919 H         1 <0>         0.0557
     66 H24       -10.6518   -7.9380   -0.5133 H         1 <0>         0.0610
     67 H25        -9.7732   -4.5635   -1.5077 H         1 <0>         0.3492
     68 H26        -7.8773   -3.7036    0.2127 H         1 <0>         0.3628
     69 H27        -6.9928   -7.5551    3.9736 H         1 <0>         0.1324
     70 H28        -8.7256   -8.8241    5.1728 H         1 <0>         0.1364
     71 H29        -7.9162   -6.5978    8.7251 H         1 <0>         0.1326
     72 H30        -6.1728   -5.3286    7.5415 H         1 <0>         0.1283
     73 H31        -3.8421   -8.2994    5.4023 H         1 <0>         0.1211
     74 H32        -2.7019   -9.6015    7.1502 H         1 <0>         0.1212
     75 H33        -1.5698   -8.4506    9.0065 H         1 <0>         0.1189
     76 H34        -1.5724   -5.9934    9.1269 H         1 <0>         0.1197
     77 H35        -2.6980   -4.6733    7.3831 H         1 <0>         0.1157
@<TRIPOS>BOND
     1    1    2 1
     2    1   45 1
     3    1   46 1
     4    1   47 1
     5    2    6 1
     6    2    3 2
     7    3    4 1
     8    3   48 1
     9    4    5 1
    10    5    6 2
    11    5    7 1
    12    7    8 1
    13    7   49 1
    14    7   50 1
    15    8    9 am
    16    8   51 1
    17    9   10 2
    18    9   11 1
    19   11   15 1
    20   11   12 2
    21   12   13 1
    22   12   39 1
    23   13   14 2
    24   13   32 1
    25   14   15 1
    26   14   19 1
    27   15   16 1
    28   16   17 1
    29   16   18 1
    30   16   52 1
    31   17   53 1
    32   17   54 1
    33   17   55 1
    34   18   56 1
    35   18   57 1
    36   18   58 1
    37   19   20 1
    38   19   59 1
    39   19   60 1
    40   20   21 1
    41   20   61 1
    42   20   62 1
    43   21   22 1
    44   21   23 1
    45   21   31 1
    46   23   24 1
    47   23   63 1
    48   23   64 1
    49   24   25 1
    50   24   26 1
    51   24   30 1
    52   26   27 1
    53   26   65 1
    54   26   66 1
    55   27   28 2
    56   27   29 1
    57   30   67 1
    58   31   68 1
    59   32   37 ar
    60   32   33 ar
    61   33   34 ar
    62   33   69 1
    63   34   35 ar
    64   34   70 1
    65   35   36 ar
    66   35   38 1
    67   36   37 ar
    68   36   71 1
    69   37   72 1
    70   39   44 ar
    71   39   40 ar
    72   40   41 ar
    73   40   73 1
    74   41   42 ar
    75   41   74 1
    76   42   43 ar
    77   42   75 1
    78   43   44 ar
    79   43   76 1
    80   44   77 1
@<TRIPOS>MOLECULE
CHEMBL416823
   46    48     0     0     0
SMALL
USER_CHARGES

@<TRIPOS>ATOM
      1 C1         -0.0167    1.3782    0.0096 C.ar      1 <0>        -0.0619
      2 C2          1.1703    2.0860    0.0021 C.ar      1 <0>        -0.1559
      3 C3          2.3786    1.4101   -0.0131 C.ar      1 <0>         0.1129
      4 C4          2.3962    0.0256   -0.0207 C.ar      1 <0>        -0.1571
      5 C5          1.2079   -0.6800   -0.0132 C.ar      1 <0>        -0.0625
      6 C6          0.0021   -0.0041    0.0020 C.ar      1 <0>        -0.1101
      7 C7         -1.2930   -0.7747    0.0103 C.3       1 <0>         0.0996
      8 O1         -1.7152   -1.0110   -1.3343 O.3       1 <0>        -0.2906
      9 C8         -2.8747   -1.6990   -1.5050 C.ar      1 <0>         0.1614
     10 C9         -3.5941   -2.1325   -0.4007 C.ar      1 <0>        -0.1978
     11 C10        -4.7733   -2.8323   -0.5764 C.ar      1 <0>         0.0128
     12 C11        -5.2361   -3.1008   -1.8526 C.ar      1 <0>        -0.1375
     13 C12        -4.5200   -2.6697   -2.9550 C.ar      1 <0>         0.0127
     14 C13        -3.3433   -1.9637   -2.7833 C.ar      1 <0>        -0.1005
     15 C14        -2.5673   -1.4880   -3.9844 C.3       1 <0>        -0.0773
     16 C15        -1.5666   -2.5663   -4.4048 C.3       1 <0>        -0.1057
     17 C16        -0.7788   -2.0834   -5.6242 C.3       1 <0>         0.1113
     18 C17         0.1371   -3.2063   -6.1185 C.3       1 <0>        -0.1534
     19 C18         0.9545   -2.7058   -7.3137 C.3       1 <0>         0.1045
     20 H1          1.6173   -3.4986   -7.6604 H         1 <0>         0.0795
     21 C19         1.7877   -1.4956   -6.8728 C.3       1 <0>        -0.2051
     22 C20         0.8627   -0.4983   -6.2102 C.2       1 <0>         0.4958
     23 O2          0.8811    0.6689   -6.5220 O.2       1 <0>        -0.4531
     24 O3          0.0169   -0.9497   -5.2609 O.3       1 <0>        -0.3640
     25 O4          0.0721   -2.3231   -8.3705 O.3       1 <0>        -0.5633
     26 Cl1        -5.1028   -3.0085   -4.5547 Cl        1 <0>        -0.0415
     27 Cl2        -5.6739   -3.3750    0.8050 Cl        1 <0>        -0.0504
     28 F1          3.5396    2.1009   -0.0209 F         1 <0>        -0.1359
     29 H2         -0.9592    1.9052    0.0260 H         1 <0>         0.1360
     30 H3          1.1554    3.1659    0.0077 H         1 <0>         0.1401
     31 H4          3.3381   -0.5027   -0.0329 H         1 <0>         0.1393
     32 H5          1.2213   -1.7599   -0.0195 H         1 <0>         0.1353
     33 H6         -1.1453   -1.7280    0.5176 H         1 <0>         0.0777
     34 H7         -2.0553   -0.1984    0.5345 H         1 <0>         0.0776
     35 H8         -3.2328   -1.9238    0.5954 H         1 <0>         0.1456
     36 H9         -6.1574   -3.6478   -1.9882 H         1 <0>         0.1469
     37 H10        -3.2552   -1.2903   -4.8064 H         1 <0>         0.0812
     38 H11        -2.0310   -0.5734   -3.7315 H         1 <0>         0.0934
     39 H12        -0.8787   -2.7640   -3.5827 H         1 <0>         0.0799
     40 H13        -2.1030   -3.4810   -4.6576 H         1 <0>         0.0875
     41 H14        -1.4718   -1.8026   -6.4173 H         1 <0>         0.0867
     42 H15         0.8116   -3.5051   -5.3161 H         1 <0>         0.0958
     43 H16        -0.4671   -4.0608   -6.4233 H         1 <0>         0.0985
     44 H17         2.5524   -1.8143   -6.1645 H         1 <0>         0.1177
     45 H18         2.2594   -1.0378   -7.7423 H         1 <0>         0.1074
     46 H19         0.5234   -1.9956   -9.1605 H         1 <0>         0.3863
@<TRIPOS>BOND
     1    1    6 ar
     2    1    2 ar
     3    1   29 1
     4    2    3 ar
     5    2   30 1
     6    3    4 ar
     7    3   28 1
     8    4    5 ar
     9    4   31 1
    10    5    6 ar
    11    5   32 1
    12    6    7 1
    13    7    8 1
    14    7   33 1
    15    7   34 1
    16    8    9 1
    17    9   14 ar
    18    9   10 ar
    19   10   11 ar
    20   10   35 1
    21   11   12 ar
    22   11   27 1
    23   12   13 ar
    24   12   36 1
    25   13   14 ar
    26   13   26 1
    27   14   15 1
    28   15   16 1
    29   15   37 1
    30   15   38 1
    31   16   17 1
    32   16   39 1
    33   16   40 1
    34   17   24 1
    35   17   18 1
    36   17   41 1
    37   18   19 1
    38   18   42 1
    39   18   43 1
    40   19   20 1
    41   19   21 1
    42   19   25 1
    43   21   22 1
    44   21   44 1
    45   21   45 1
    46   22   23 2
    47   22   24 1
    48   25   46 1
@<TRIPOS>MOLECULE
CHEMBL416823__1
   46    48     0     0     0
SMALL
USER_CHARGES

@<TRIPOS>ATOM
      1 C1         -0.0167    1.3782    0.0096 C.ar      1 <0>        -0.0630
      2 C2          1.1703    2.0860    0.0021 C.ar      1 <0>        -0.1565
      3 C3          2.3786    1.4101   -0.0131 C.ar      1 <0>         0.1129
      4 C4          2.3962    0.0256   -0.0207 C.ar      1 <0>        -0.1568
      5 C5          1.2079   -0.6800   -0.0132 C.ar      1 <0>        -0.0634
      6 C6          0.0021   -0.0041    0.0020 C.ar      1 <0>        -0.1109
      7 C7         -1.2930   -0.7747    0.0103 C.3       1 <0>         0.0994
      8 O1         -1.7152   -1.0110   -1.3343 O.3       1 <0>        -0.2950
      9 C8         -2.8747   -1.6990   -1.5050 C.ar      1 <0>         0.1594
     10 C9         -3.5941   -2.1325   -0.4007 C.ar      1 <0>        -0.1975
     11 C10        -4.7733   -2.8323   -0.5764 C.ar      1 <0>         0.0131
     12 C11        -5.2361   -3.1008   -1.8526 C.ar      1 <0>        -0.1370
     13 C12        -4.5200   -2.6697   -2.9550 C.ar      1 <0>         0.0135
     14 C13        -3.3433   -1.9637   -2.7833 C.ar      1 <0>        -0.1011
     15 C14        -2.5673   -1.4880   -3.9844 C.3       1 <0>        -0.0780
     16 C15        -1.5666   -2.5663   -4.4048 C.3       1 <0>        -0.1045
     17 C16        -0.7788   -2.0834   -5.6242 C.3       1 <0>         0.1111
     18 C17         0.3033   -3.1089   -5.9725 C.3       1 <0>        -0.1550
     19 C18         1.0629   -2.6423   -7.2185 C.3       1 <0>         0.1089
     20 H1          1.5327   -1.6789   -7.0202 H         1 <0>         0.0674
     21 C19         0.0710   -2.5009   -8.3801 C.3       1 <0>        -0.2049
     22 C20        -1.0819   -1.6370   -7.9175 C.2       1 <0>         0.4919
     23 O2         -1.4683   -0.7069   -8.5849 O.2       1 <0>        -0.4481
     24 O3         -1.6659   -1.9352   -6.7385 O.3       1 <0>        -0.3627
     25 O4          2.0652   -3.6033   -7.5560 O.3       1 <0>        -0.5556
     26 Cl1        -5.1028   -3.0085   -4.5547 Cl        1 <0>        -0.0361
     27 Cl2        -5.6739   -3.3750    0.8050 Cl        1 <0>        -0.0500
     28 F1          3.5396    2.1009   -0.0209 F         1 <0>        -0.1355
     29 H2         -0.9592    1.9052    0.0260 H         1 <0>         0.1362
     30 H3          1.1554    3.1659    0.0077 H         1 <0>         0.1402
     31 H4          3.3381   -0.5027   -0.0329 H         1 <0>         0.1402
     32 H5          1.2213   -1.7599   -0.0195 H         1 <0>         0.1362
     33 H6         -1.1453   -1.7280    0.5176 H         1 <0>         0.0785
     34 H7         -2.0553   -0.1984    0.5345 H         1 <0>         0.0780
     35 H8         -3.2328   -1.9238    0.5954 H         1 <0>         0.1456
     36 H9         -6.1574   -3.6478   -1.9882 H         1 <0>         0.1471
     37 H10        -3.2552   -1.2903   -4.8064 H         1 <0>         0.0911
     38 H11        -2.0310   -0.5734   -3.7315 H         1 <0>         0.0849
     39 H12        -0.8787   -2.7640   -3.5827 H         1 <0>         0.0916
     40 H13        -2.1030   -3.4810   -4.6576 H         1 <0>         0.0814
     41 H14        -0.3129   -1.1239   -5.3998 H         1 <0>         0.0819
     42 H15         0.9974   -3.2031   -5.1374 H         1 <0>         0.0987
     43 H16        -0.1613   -4.0749   -6.1704 H         1 <0>         0.0918
     44 H17         0.5651   -2.0301   -9.2299 H         1 <0>         0.1070
     45 H18        -0.2996   -3.4846   -8.6686 H         1 <0>         0.1179
     46 H19         2.5856   -3.3710   -8.3372 H         1 <0>         0.3855
@<TRIPOS>BOND
     1    1    6 ar
     2    1    2 ar
     3    1   29 1
     4    2    3 ar
     5    2   30 1
     6    3    4 ar
     7    3   28 1
     8    4    5 ar
     9    4   31 1
    10    5    6 ar
    11    5   32 1
    12    6    7 1
    13    7    8 1
    14    7   33 1
    15    7   34 1
    16    8    9 1
    17    9   14 ar
    18    9   10 ar
    19   10   11 ar
    20   10   35 1
    21   11   12 ar
    22   11   27 1
    23   12   13 ar
    24   12   36 1
    25   13   14 ar
    26   13   26 1
    27   14   15 1
    28   15   16 1
    29   15   37 1
    30   15   38 1
    31   16   17 1
    32   16   39 1
    33   16   40 1
    34   17   24 1
    35   17   18 1
    36   17   41 1
    37   18   19 1
    38   18   42 1
    39   18   43 1
    40   19   20 1
    41   19   21 1
    42   19   25 1
    43   21   22 1
    44   21   44 1
    45   21   45 1
    46   22   23 2
    47   22   24 1
    48   25   46 1
@<TRIPOS>MOLECULE
CHEMBL332812
   68    72     0     0     0
SMALL
USER_CHARGES

@<TRIPOS>ATOM
      1 C1         -0.0164    1.3567    0.0095 C.ar      1 <0>        -0.1208
      2 C2          1.1686    2.0905    0.0021 C.ar      1 <0>        -0.1236
      3 C3          2.3785    1.4675   -0.0131 C.ar      1 <0>        -0.1056
      4 C4          2.4375    0.0634   -0.0211 C.ar      1 <0>        -0.0546
      5 C5          3.6681   -0.6153   -0.0364 C.ar      1 <0>        -0.1078
      6 C6          3.6865   -1.9761   -0.0434 C.ar      1 <0>        -0.0732
      7 C7          2.5015   -2.7098   -0.0357 C.ar      1 <0>        -0.0534
      8 C8          1.2917   -2.0868   -0.0209 C.ar      1 <0>        -0.1181
      9 C9          1.2327   -0.6827   -0.0133 C.ar      1 <0>        -0.0466
     10 C10         0.0021   -0.0041    0.0020 C.ar      1 <0>        -0.1082
     11 C11         5.0079   -2.7004   -0.0602 C.3       1 <0>        -0.0743
     12 C12         5.4695   -2.9528    1.3765 C.3       1 <0>         0.0011
     13 C13         6.8573   -3.6050    1.3668 C.3       1 <0>        -0.1126
     14 C14         7.2181   -4.0746    2.7779 C.3       1 <0>        -0.1177
     15 C15         6.3658   -5.2946    3.1498 C.3       1 <0>        -0.0400
     16 C16         4.9214   -4.9636    2.8686 C.2       1 <0>        -0.2107
     17 C17         4.5090   -3.8955    2.0620 C.2       1 <0>         0.0886
     18 N1          3.2061   -3.8805    2.0242 N.2       1 <0>        -0.2634
     19 N2          2.7201   -4.9403    2.8036 N.pl3     1 <0>        -0.3299
     20 C18         3.7982   -5.6065    3.3230 C.2       1 <0>         0.1243
     21 C19         3.7589   -6.7874    4.2017 C.2       1 <0>        -0.1194
     22 C20         2.9865   -6.7856    5.2829 C.2       1 <0>        -0.1408
     23 C21         2.9463   -7.9941    6.1822 C.3       1 <0>         0.1413
     24 H1          1.9491   -8.4335    6.1560 H         1 <0>         0.1131
     25 C22         3.2815   -7.5751    7.6150 C.3       1 <0>        -0.1814
     26 C23         3.1193   -8.7761    8.5488 C.3       1 <0>         0.1380
     27 H2          2.1161   -9.1881    8.4400 H         1 <0>         0.0940
     28 C24         3.3328   -8.3291    9.9964 C.3       1 <0>        -0.2195
     29 C25         3.0529   -9.4827   10.9248 C.2       1 <0>         0.4906
     30 O1          2.7142  -10.5623   10.4708 O.co2     1 <0>        -0.6809
     31 O2          3.1653   -9.3363   12.1300 O.co2     1 <0>        -0.7125
     32 O3          4.0838   -9.7752    8.2117 O.3       1 <0>        -0.5278
     33 O4          3.9024   -8.9556    5.7310 O.3       1 <0>        -0.5365
     34 C26         1.3722   -5.2603    3.0138 C.ar      1 <0>         0.1493
     35 C27         0.9844   -6.5875    3.1411 C.ar      1 <0>        -0.0963
     36 C28        -0.3445   -6.9008    3.3486 C.ar      1 <0>        -0.1302
     37 C29        -1.2901   -5.8923    3.4298 C.ar      1 <0>         0.0973
     38 C30        -0.9054   -4.5679    3.3026 C.ar      1 <0>        -0.1363
     39 C31         0.4233   -4.2502    3.1007 C.ar      1 <0>        -0.0847
     40 F1         -2.5896   -6.2007    3.6329 F         1 <0>        -0.1348
     41 H3         -0.9633    1.8757    0.0259 H         1 <0>         0.1192
     42 H4          1.1260    3.1696    0.0083 H         1 <0>         0.1192
     43 H5          3.2884    2.0491   -0.0194 H         1 <0>         0.1230
     44 H6          4.5943   -0.0599   -0.0428 H         1 <0>         0.1225
     45 H7          2.5441   -3.7890   -0.0419 H         1 <0>         0.1198
     46 H8          0.3816   -2.6684   -0.0154 H         1 <0>         0.1193
     47 H9         -0.9241   -0.5595    0.0082 H         1 <0>         0.1229
     48 H10         4.8935   -3.6529   -0.5777 H         1 <0>         0.0745
     49 H11         5.7491   -2.0921   -0.5784 H         1 <0>         0.0805
     50 H12         5.5098   -2.0092    1.9207 H         1 <0>         0.0907
     51 H13         6.8513   -4.4600    0.6907 H         1 <0>         0.0695
     52 H14         7.5963   -2.8798    1.0261 H         1 <0>         0.0728
     53 H15         8.2733   -4.3455    2.8113 H         1 <0>         0.0699
     54 H16         7.0283   -3.2695    3.4878 H         1 <0>         0.0642
     55 H17         6.6700   -6.1523    2.5500 H         1 <0>         0.0717
     56 H18         6.4916   -5.5221    4.2084 H         1 <0>         0.0720
     57 H19         4.3579   -7.6550    3.9674 H         1 <0>         0.1464
     58 H20         2.3875   -5.9180    5.5171 H         1 <0>         0.1133
     59 H21         4.3104   -7.2179    7.6578 H         1 <0>         0.0657
     60 H22         2.6069   -6.7780    7.9277 H         1 <0>         0.0755
     61 H23         4.3636   -7.9996   10.1267 H         1 <0>         0.0568
     62 H24         2.6564   -7.5057   10.2259 H         1 <0>         0.0611
     63 H25         5.0008   -9.4777    8.2862 H         1 <0>         0.3506
     64 H26         4.8138   -8.6324    5.7280 H         1 <0>         0.3679
     65 H27         1.7215   -7.3743    3.0775 H         1 <0>         0.1439
     66 H28        -0.6465   -7.9330    3.4474 H         1 <0>         0.1470
     67 H29        -1.6444   -3.7829    3.3658 H         1 <0>         0.1429
     68 H30         0.7236   -3.2171    3.0064 H         1 <0>         0.1409
@<TRIPOS>BOND
     1    1   10 ar
     2    1    2 ar
     3    1   41 1
     4    2    3 ar
     5    2   42 1
     6    3    4 ar
     7    3   43 1
     8    4    9 ar
     9    4    5 ar
    10    5    6 ar
    11    5   44 1
    12    6    7 ar
    13    6   11 1
    14    7    8 ar
    15    7   45 1
    16    8    9 ar
    17    8   46 1
    18    9   10 ar
    19   10   47 1
    20   11   12 1
    21   11   48 1
    22   11   49 1
    23   12   17 1
    24   12   13 1
    25   12   50 1
    26   13   14 1
    27   13   51 1
    28   13   52 1
    29   14   15 1
    30   14   53 1
    31   14   54 1
    32   15   16 1
    33   15   55 1
    34   15   56 1
    35   16   20 2
    36   16   17 1
    37   17   18 2
    38   18   19 1
    39   19   20 1
    40   19   34 1
    41   20   21 1
    42   21   22 2
    43   21   57 1
    44   22   23 1
    45   22   58 1
    46   23   24 1
    47   23   25 1
    48   23   33 1
    49   25   26 1
    50   25   59 1
    51   25   60 1
    52   26   27 1
    53   26   28 1
    54   26   32 1
    55   28   29 1
    56   28   61 1
    57   28   62 1
    58   29   30 2
    59   29   31 1
    60   32   63 1
    61   33   64 1
    62   34   39 ar
    63   34   35 ar
    64   35   36 ar
    65   35   65 1
    66   36   37 ar
    67   36   66 1
    68   37   38 ar
    69   37   40 1
    70   38   39 ar
    71   38   67 1
    72   39   68 1
@<TRIPOS>MOLECULE
CHEMBL332812__1
   68    72     0     0     0
SMALL
USER_CHARGES

@<TRIPOS>ATOM
      1 C1          2.0013   -8.7156   -1.1160 C.ar      1 <0>        -0.1200
      2 C2          1.1258   -8.0261   -0.2789 C.ar      1 <0>        -0.1182
      3 C3          1.4254   -6.7778    0.1730 C.ar      1 <0>        -0.1067
      4 C4          2.6351   -6.1722   -0.2078 C.ar      1 <0>        -0.0479
      5 C5          2.9794   -4.8850    0.2390 C.ar      1 <0>        -0.1048
      6 C6          4.1597   -4.3304   -0.1501 C.ar      1 <0>        -0.0708
      7 C7          5.0353   -5.0201   -0.9869 C.ar      1 <0>        -0.1064
      8 C8          4.7354   -6.2681   -1.4392 C.ar      1 <0>        -0.1060
      9 C9          3.5255   -6.8735   -1.0586 C.ar      1 <0>        -0.0552
     10 C10         3.1814   -8.1608   -1.5055 C.ar      1 <0>        -0.1059
     11 C11         4.5252   -2.9497    0.3306 C.3       1 <0>        -0.0739
     12 C12         5.1733   -3.0460    1.7132 C.3       1 <0>         0.0051
     13 C13         6.5214   -3.7686    1.6033 C.3       1 <0>        -0.1120
     14 C14         7.2777   -3.6573    2.9290 C.3       1 <0>        -0.1178
     15 C15         7.7745   -2.2188    3.1209 C.3       1 <0>        -0.0395
     16 C16         6.6117   -1.2848    2.8962 C.2       1 <0>        -0.2115
     17 C17         5.4234   -1.6590    2.2563 C.2       1 <0>         0.0914
     18 N1          4.6247   -0.6294    2.2250 N.2       1 <0>        -0.2788
     19 N2          5.2637    0.4560    2.8418 N.pl3     1 <0>        -0.3293
     20 C18         6.4997    0.0344    3.2546 C.2       1 <0>         0.1274
     21 C19         7.5145    0.8431    3.9505 C.2       1 <0>        -0.1184
     22 C20         7.8608    2.0323    3.4694 C.2       1 <0>        -0.1406
     23 C21         8.8994    2.8599    4.1817 C.3       1 <0>         0.1415
     24 H1          8.4389    3.7714    4.5628 H         1 <0>         0.1129
     25 C22        10.0190    3.2243    3.2046 C.3       1 <0>        -0.1814
     26 C23        11.0092    4.1666    3.8920 C.3       1 <0>         0.1378
     27 H2         10.4750    5.0324    4.2833 H         1 <0>         0.0940
     28 C24        12.0591    4.6297    2.8800 C.3       1 <0>        -0.2195
     29 C25        12.9606    5.6517    3.5235 C.2       1 <0>         0.4908
     30 O1         12.7801    5.9792    4.6839 O.co2     1 <0>        -0.6809
     31 O2         13.8704    6.1509    2.8836 O.co2     1 <0>        -0.7126
     32 O3         11.6537    3.4791    4.9663 O.3       1 <0>        -0.5278
     33 O4          9.4423    2.1095    5.2698 O.3       1 <0>        -0.5366
     34 C26         4.7326    1.7422    3.0062 C.ar      1 <0>         0.1452
     35 C27         4.8937    2.4120    4.2118 C.ar      1 <0>        -0.0879
     36 C28         4.3699    3.6798    4.3717 C.ar      1 <0>        -0.1320
     37 C29         3.6843    4.2831    3.3306 C.ar      1 <0>         0.1014
     38 C30         3.5221    3.6165    2.1275 C.ar      1 <0>        -0.1377
     39 C31         4.0494    2.3509    1.9617 C.ar      1 <0>        -0.0822
     40 F1          3.1726    5.5233    3.4889 F         1 <0>        -0.1338
     41 H3          1.7413   -9.7068   -1.4571 H         1 <0>         0.1213
     42 H4          0.1955   -8.4892    0.0152 H         1 <0>         0.1214
     43 H5          0.7370   -6.2552    0.8205 H         1 <0>         0.1257
     44 H6          2.3106   -4.3386    0.8875 H         1 <0>         0.1263
     45 H7          5.9655   -4.5570   -1.2811 H         1 <0>         0.1238
     46 H8          5.4234   -6.7904   -2.0874 H         1 <0>         0.1265
     47 H9          3.8501   -8.7070   -2.1542 H         1 <0>         0.1255
     48 H10         5.2270   -2.4954   -0.3688 H         1 <0>         0.0754
     49 H11         3.6260   -2.3367    0.3928 H         1 <0>         0.0820
     50 H12         4.5165   -3.5928    2.3898 H         1 <0>         0.0907
     51 H13         6.3514   -4.8197    1.3701 H         1 <0>         0.0734
     52 H14         7.1131   -3.3131    0.8091 H         1 <0>         0.0682
     53 H15         6.6119   -3.9237    3.7499 H         1 <0>         0.0640
     54 H16         8.1297   -4.3370    2.9187 H         1 <0>         0.0693
     55 H17         8.1562   -2.0937    4.1342 H         1 <0>         0.0724
     56 H18         8.5638   -2.0032    2.4008 H         1 <0>         0.0716
     57 H19         7.9775    0.4696    4.8519 H         1 <0>         0.1466
     58 H20         7.3978    2.4058    2.5680 H         1 <0>         0.1130
     59 H21        10.5374    2.3179    2.8917 H         1 <0>         0.0658
     60 H22         9.5929    3.7189    2.3318 H         1 <0>         0.0755
     61 H23        12.6524    3.7750    2.5552 H         1 <0>         0.0569
     62 H24        11.5616    5.0752    2.0185 H         1 <0>         0.0611
     63 H25        12.1495    2.6959    4.6908 H         1 <0>         0.3506
     64 H26         9.8689    1.2835    5.0039 H         1 <0>         0.3678
     65 H27         5.4280    1.9417    5.0241 H         1 <0>         0.1416
     66 H28         4.4947    4.2009    5.3093 H         1 <0>         0.1475
     67 H29         2.9868    4.0885    1.3169 H         1 <0>         0.1445
     68 H30         3.9269    1.8334    1.0218 H         1 <0>         0.1404
@<TRIPOS>BOND
     1    1   10 ar
     2    1    2 ar
     3    1   41 1
     4    2    3 ar
     5    2   42 1
     6    3    4 ar
     7    3   43 1
     8    4    9 ar
     9    4    5 ar
    10    5    6 ar
    11    5   44 1
    12    6    7 ar
    13    6   11 1
    14    7    8 ar
    15    7   45 1
    16    8    9 ar
    17    8   46 1
    18    9   10 ar
    19   10   47 1
    20   11   12 1
    21   11   48 1
    22   11   49 1
    23   12   17 1
    24   12   13 1
    25   12   50 1
    26   13   14 1
    27   13   51 1
    28   13   52 1
    29   14   15 1
    30   14   53 1
    31   14   54 1
    32   15   16 1
    33   15   55 1
    34   15   56 1
    35   16   20 2
    36   16   17 1
    37   17   18 2
    38   18   19 1
    39   19   20 1
    40   19   34 1
    41   20   21 1
    42   21   22 2
    43   21   57 1
    44   22   23 1
    45   22   58 1
    46   23   24 1
    47   23   25 1
    48   23   33 1
    49   25   26 1
    50   25   59 1
    51   25   60 1
    52   26   27 1
    53   26   28 1
    54   26   32 1
    55   28   29 1
    56   28   61 1
    57   28   62 1
    58   29   30 2
    59   29   31 1
    60   32   63 1
    61   33   64 1
    62   34   39 ar
    63   34   35 ar
    64   35   36 ar
    65   35   65 1
    66   36   37 ar
    67   36   66 1
    68   37   38 ar
    69   37   40 1
    70   38   39 ar
    71   38   67 1
    72   39   68 1
@<TRIPOS>MOLECULE
CHEMBL63204
   57    59     0     0     0
SMALL
USER_CHARGES

@<TRIPOS>ATOM
      1 C1         -0.0187    1.5258    0.0104 C.3       1 <0>        -0.1434
      2 C2          0.0021   -0.0041    0.0020 C.3       1 <0>        -0.0147
      3 C3          0.7421   -0.5109    1.2415 C.3       1 <0>        -0.1433
      4 C4         -1.4117   -0.5257    0.0127 C.2       1 <0>         0.1159
      5 C5         -1.9929   -1.3462   -0.9741 C.2       1 <0>        -0.1690
      6 C6         -3.3033   -1.5967   -0.5821 C.2       1 <0>         0.1478
      7 N1         -3.4954   -0.9443    0.6027 N.pl3     1 <0>        -0.3207
      8 N2         -2.3013   -0.2974    0.9411 N.2       1 <0>        -0.2748
      9 C7         -4.6759   -0.9297    1.3489 C.ar      1 <0>         0.3678
     10 C8         -4.6224   -0.6944    2.7176 C.ar      1 <0>        -0.1608
     11 C9         -5.7996   -0.6826    3.4453 C.ar      1 <0>        -0.0547
     12 C10        -6.9943   -0.9076    2.7753 C.ar      1 <0>        -0.1833
     13 C11        -6.9729   -1.1348    1.4130 C.ar      1 <0>         0.1301
     14 N3         -5.8356   -1.1347    0.7452 N.ar      1 <0>        -0.4905
     15 C12        -4.2977   -2.4115   -1.3082 C.ar      1 <0>        -0.0325
     16 C13        -4.4498   -2.2656   -2.6888 C.ar      1 <0>        -0.0491
     17 C14        -5.3801   -3.0293   -3.3617 C.ar      1 <0>        -0.1525
     18 C15        -6.1637   -3.9399   -2.6705 C.ar      1 <0>         0.1120
     19 C16        -6.0172   -4.0889   -1.3003 C.ar      1 <0>        -0.1563
     20 C17        -5.0858   -3.3351   -0.6179 C.ar      1 <0>        -0.0431
     21 F1         -7.0743   -4.6848   -3.3348 F         1 <0>        -0.1380
     22 C18        -1.3336   -1.8468   -2.1965 C.2       1 <0>        -0.0907
     23 C19        -1.3913   -3.1373   -2.5004 C.2       1 <0>        -0.1646
     24 C20        -0.7183   -3.6483   -3.7482 C.3       1 <0>         0.1432
     25 C21         0.2472   -4.7770   -3.3812 C.3       1 <0>        -0.1804
     26 C22         0.8368   -5.3792   -4.6581 C.3       1 <0>         0.1374
     27 H1          0.0285   -5.6959   -5.3173 H         1 <0>         0.0931
     28 C23         1.7047   -6.5870   -4.2989 C.3       1 <0>        -0.2191
     29 C24         2.1856   -7.2535   -5.5620 C.2       1 <0>         0.4906
     30 O1          1.8640   -6.8041   -6.6488 O.co2     1 <0>        -0.6810
     31 O2          2.8963   -8.2420   -5.4971 O.co2     1 <0>        -0.7136
     32 O3          1.6365   -4.3986   -5.3221 O.3       1 <0>        -0.5279
     33 O4          0.0065   -2.5843   -4.3683 O.3       1 <0>        -0.5384
     34 H2          1.0039    1.9031    0.0027 H         1 <0>         0.0645
     35 H3         -0.5459    1.8868   -0.8726 H         1 <0>         0.0568
     36 H4         -0.5289    1.8773    0.9072 H         1 <0>         0.0595
     37 H5          0.5123   -0.3556   -0.8948 H         1 <0>         0.0955
     38 H6          0.2319   -0.1594    2.1383 H         1 <0>         0.0595
     39 H7          0.7568   -1.6008    1.2356 H         1 <0>         0.0570
     40 H8          1.7647   -0.1336    1.2338 H         1 <0>         0.0646
     41 H9         -3.6749   -0.5234    3.2069 H         1 <0>         0.1453
     42 H10        -5.7890   -0.5028    4.5101 H         1 <0>         0.1436
     43 H11        -7.9306   -0.9054    3.3135 H         1 <0>         0.1420
     44 H12        -7.8998   -1.3103    0.8872 H         1 <0>         0.1654
     45 H13        -3.8402   -1.5559   -3.2284 H         1 <0>         0.1376
     46 H14        -5.4986   -2.9174   -4.4293 H         1 <0>         0.1411
     47 H15        -6.6308   -4.7997   -0.7668 H         1 <0>         0.1351
     48 H16        -4.9693   -3.4552    0.4491 H         1 <0>         0.1175
     49 H17        -0.8044   -1.1628   -2.8433 H         1 <0>         0.1311
     50 H18        -1.9206   -3.8213   -1.8536 H         1 <0>         0.1104
     51 H19        -1.4722   -4.0254   -4.4392 H         1 <0>         0.1074
     52 H20         1.0514   -4.3801   -2.7617 H         1 <0>         0.0642
     53 H21        -0.2893   -5.5490   -2.8295 H         1 <0>         0.0740
     54 H22         2.5625   -6.2566   -3.7131 H         1 <0>         0.0563
     55 H23         1.1173   -7.2957   -3.7151 H         1 <0>         0.0607
     56 H24         2.3766   -4.0709   -4.7930 H         1 <0>         0.3500
     57 H25         0.6956   -2.1998   -3.8095 H         1 <0>         0.3658
@<TRIPOS>BOND
     1    1    2 1
     2    1   34 1
     3    1   35 1
     4    1   36 1
     5    2    3 1
     6    2    4 1
     7    2   37 1
     8    3   38 1
     9    3   39 1
    10    3   40 1
    11    4    8 2
    12    4    5 1
    13    5    6 2
    14    5   22 1
    15    6    7 1
    16    6   15 1
    17    7    8 1
    18    7    9 1
    19    9   14 ar
    20    9   10 ar
    21   10   11 ar
    22   10   41 1
    23   11   12 ar
    24   11   42 1
    25   12   13 ar
    26   12   43 1
    27   13   14 ar
    28   13   44 1
    29   15   20 ar
    30   15   16 ar
    31   16   17 ar
    32   16   45 1
    33   17   18 ar
    34   17   46 1
    35   18   19 ar
    36   18   21 1
    37   19   20 ar
    38   19   47 1
    39   20   48 1
    40   22   23 2
    41   22   49 1
    42   23   24 1
    43   23   50 1
    44   24   25 1
    45   24   33 1
    46   24   51 1
    47   25   26 1
    48   25   52 1
    49   25   53 1
    50   26   27 1
    51   26   28 1
    52   26   32 1
    53   28   29 1
    54   28   54 1
    55   28   55 1
    56   29   30 2
    57   29   31 1
    58   32   56 1
    59   33   57 1
@<TRIPOS>MOLECULE
CHEMBL63204__1
   57    59     0     0     0
SMALL
USER_CHARGES

@<TRIPOS>ATOM
      1 C1         -0.0187    1.5258    0.0104 C.3       1 <0>        -0.1432
      2 C2          0.0021   -0.0041    0.0020 C.3       1 <0>        -0.0161
      3 C3          0.7421   -0.5109    1.2415 C.3       1 <0>        -0.1431
      4 C4         -1.4117   -0.5257    0.0127 C.2       1 <0>         0.1174
      5 C5         -1.9929   -1.3462   -0.9741 C.2       1 <0>        -0.1731
      6 C6         -3.3033   -1.5967   -0.5821 C.2       1 <0>         0.1507
      7 N1         -3.4954   -0.9443    0.6027 N.pl3     1 <0>        -0.3206
      8 N2         -2.3013   -0.2974    0.9411 N.2       1 <0>        -0.2747
      9 C7         -4.6759   -0.9297    1.3489 C.ar      1 <0>         0.3676
     10 C8         -4.6224   -0.6944    2.7176 C.ar      1 <0>        -0.1606
     11 C9         -5.7996   -0.6826    3.4453 C.ar      1 <0>        -0.0547
     12 C10        -6.9943   -0.9076    2.7753 C.ar      1 <0>        -0.1831
     13 C11        -6.9729   -1.1348    1.4130 C.ar      1 <0>         0.1301
     14 N3         -5.8356   -1.1347    0.7452 N.ar      1 <0>        -0.4903
     15 C12        -4.2977   -2.4115   -1.3082 C.ar      1 <0>        -0.0342
     16 C13        -4.4498   -2.2656   -2.6888 C.ar      1 <0>        -0.0453
     17 C14        -5.3801   -3.0293   -3.3617 C.ar      1 <0>        -0.1488
     18 C15        -6.1637   -3.9399   -2.6705 C.ar      1 <0>         0.1115
     19 C16        -6.0172   -4.0889   -1.3003 C.ar      1 <0>        -0.1573
     20 C17        -5.0858   -3.3351   -0.6179 C.ar      1 <0>        -0.0436
     21 F1         -7.0743   -4.6848   -3.3348 F         1 <0>        -0.1384
     22 C18        -1.3336   -1.8468   -2.1965 C.2       1 <0>        -0.0789
     23 C19        -1.3913   -3.1373   -2.5004 C.2       1 <0>        -0.1623
     24 C20        -0.7183   -3.6483   -3.7482 C.3       1 <0>         0.1419
     25 C21         0.3367   -4.6894   -3.3688 C.3       1 <0>        -0.1817
     26 C22         1.1050   -5.1167   -4.6210 C.3       1 <0>         0.1355
     27 H1          0.4020   -5.4660   -5.3771 H         1 <0>         0.1023
     28 C23         2.0735   -6.2462   -4.2644 C.3       1 <0>        -0.2184
     29 C24         2.7407   -6.7503   -5.5182 C.2       1 <0>         0.4905
     30 O1          2.4670   -6.2522   -6.5968 O.co2     1 <0>        -0.6806
     31 O2          3.5542   -7.6561   -5.4538 O.co2     1 <0>        -0.7135
     32 O3          1.8399   -4.0028   -5.1322 O.3       1 <0>        -0.5414
     33 O4         -1.6933   -4.2480   -4.6037 O.3       1 <0>        -0.5480
     34 H2          1.0039    1.9031    0.0027 H         1 <0>         0.0648
     35 H3         -0.5459    1.8868   -0.8726 H         1 <0>         0.0566
     36 H4         -0.5289    1.8773    0.9072 H         1 <0>         0.0596
     37 H5          0.5123   -0.3556   -0.8948 H         1 <0>         0.0961
     38 H6          0.2319   -0.1594    2.1383 H         1 <0>         0.0595
     39 H7          0.7568   -1.6008    1.2356 H         1 <0>         0.0572
     40 H8          1.7647   -0.1336    1.2338 H         1 <0>         0.0649
     41 H9         -3.6749   -0.5234    3.2069 H         1 <0>         0.1454
     42 H10        -5.7890   -0.5028    4.5101 H         1 <0>         0.1437
     43 H11        -7.9306   -0.9054    3.3135 H         1 <0>         0.1420
     44 H12        -7.8998   -1.3103    0.8872 H         1 <0>         0.1655
     45 H13        -3.8402   -1.5559   -3.2284 H         1 <0>         0.1367
     46 H14        -5.4986   -2.9174   -4.4293 H         1 <0>         0.1414
     47 H15        -6.6308   -4.7997   -0.7668 H         1 <0>         0.1344
     48 H16        -4.9693   -3.4552    0.4491 H         1 <0>         0.1169
     49 H17        -0.8044   -1.1628   -2.8433 H         1 <0>         0.1252
     50 H18        -1.9206   -3.8213   -1.8536 H         1 <0>         0.1069
     51 H19        -0.2395   -2.8187   -4.2685 H         1 <0>         0.1090
     52 H20         1.0298   -4.2578   -2.6468 H         1 <0>         0.0695
     53 H21        -0.1523   -5.5583   -2.9284 H         1 <0>         0.0688
     54 H22         2.8305   -5.8718   -3.5754 H         1 <0>         0.0564
     55 H23         1.5238   -7.0607   -3.7928 H         1 <0>         0.0612
     56 H24         2.4859   -3.6394   -4.5111 H         1 <0>         0.3536
     57 H25        -2.1601   -4.9951   -4.2050 H         1 <0>         0.3688
@<TRIPOS>BOND
     1    1    2 1
     2    1   34 1
     3    1   35 1
     4    1   36 1
     5    2    3 1
     6    2    4 1
     7    2   37 1
     8    3   38 1
     9    3   39 1
    10    3   40 1
    11    4    8 2
    12    4    5 1
    13    5    6 2
    14    5   22 1
    15    6    7 1
    16    6   15 1
    17    7    8 1
    18    7    9 1
    19    9   14 ar
    20    9   10 ar
    21   10   11 ar
    22   10   41 1
    23   11   12 ar
    24   11   42 1
    25   12   13 ar
    26   12   43 1
    27   13   14 ar
    28   13   44 1
    29   15   20 ar
    30   15   16 ar
    31   16   17 ar
    32   16   45 1
    33   17   18 ar
    34   17   46 1
    35   18   19 ar
    36   18   21 1
    37   19   20 ar
    38   19   47 1
    39   20   48 1
    40   22   23 2
    41   22   49 1
    42   23   24 1
    43   23   50 1
    44   24   25 1
    45   24   33 1
    46   24   51 1
    47   25   26 1
    48   25   52 1
    49   25   53 1
    50   26   27 1
    51   26   28 1
    52   26   32 1
    53   28   29 1
    54   28   54 1
    55   28   55 1
    56   29   30 2
    57   29   31 1
    58   32   56 1
    59   33   57 1
@<TRIPOS>MOLECULE
CHEMBL487278
   72    74     0     0     0
SMALL
USER_CHARGES

@<TRIPOS>ATOM
      1 C1         -0.0187    1.5258    0.0104 C.3       1 <0>        -0.1468
      2 C2          0.0021   -0.0041    0.0020 C.3       1 <0>        -0.0335
      3 C3          0.7421   -0.5109    1.2415 C.3       1 <0>        -0.1483
      4 C4         -1.4117   -0.5257    0.0127 C.2       1 <0>         0.0854
      5 C5         -2.3482   -0.2817    0.9829 C.2       1 <0>        -0.2200
      6 C6         -3.5527   -0.9891    0.5620 C.2       1 <0>        -0.1293
      7 C7         -3.2596   -1.5955   -0.6061 C.2       1 <0>         0.0192
      8 N1         -1.9711   -1.3068   -0.9339 N.pl3     1 <0>        -0.4245
      9 C8         -1.2878   -1.7798   -2.1404 C.3       1 <0>         0.1004
     10 C9         -0.6098   -3.1203   -1.8502 C.3       1 <0>        -0.1658
     11 C10         0.1037   -3.6143   -3.1103 C.3       1 <0>         0.1168
     12 H1         -0.6056   -3.6559   -3.9368 H         1 <0>         0.0995
     13 C11         0.6757   -5.0108   -2.8582 C.3       1 <0>        -0.1855
     14 C12         1.2799   -5.5559   -4.1538 C.3       1 <0>         0.1377
     15 H2          0.5295   -5.5297   -4.9439 H         1 <0>         0.0930
     16 C13         1.7396   -6.9987   -3.9346 C.3       1 <0>        -0.2194
     17 C14         2.2215   -7.5762   -5.2405 C.2       1 <0>         0.4903
     18 O1          2.1993   -6.8969   -6.2527 O.co2     1 <0>        -0.6810
     19 O2          2.6335   -8.7229   -5.2848 O.co2     1 <0>        -0.7125
     20 O3          2.3988   -4.7519   -4.5328 O.3       1 <0>        -0.5279
     21 O4          1.1660   -2.7167   -3.4390 O.3       1 <0>        -0.5413
     22 C15        -4.2419   -2.4406   -1.3813 C.3       1 <0>        -0.0485
     23 C16        -5.3979   -2.8193   -0.4480 C.3       1 <0>        -0.1117
     24 C17        -5.9288   -1.5628    0.2477 C.3       1 <0>        -0.1174
     25 C18        -4.8869   -1.0598    1.2554 C.3       1 <0>        -0.0465
     26 C19        -2.1743    0.5279    2.2007 C.2       1 <0>         0.6089
     27 O5         -2.4219    1.7185    2.1800 O.2       1 <0>        -0.5409
     28 N2         -1.7408   -0.0506    3.3382 N.am      1 <0>        -0.7129
     29 C20        -1.5678    0.7548    4.5497 C.3       1 <0>         0.1892
     30 H3         -2.3375    1.5257    4.5865 H         1 <0>         0.1068
     31 C21        -0.1869    1.4134    4.5314 C.3       1 <0>         0.0688
     32 O6          0.8229    0.4046    4.6007 O.3       1 <0>        -0.5621
     33 C22        -1.6858   -0.1312    5.7630 C.ar      1 <0>        -0.0882
     34 C23        -1.1172   -1.3912    5.7567 C.ar      1 <0>        -0.0865
     35 C24        -1.2254   -2.2039    6.8696 C.ar      1 <0>        -0.1210
     36 C25        -1.9018   -1.7565    7.9891 C.ar      1 <0>        -0.1182
     37 C26        -2.4696   -0.4961    7.9957 C.ar      1 <0>        -0.1217
     38 C27        -2.3577    0.3182    6.8844 C.ar      1 <0>        -0.1108
     39 H4          1.0039    1.9031    0.0027 H         1 <0>         0.0586
     40 H5         -0.5459    1.8868   -0.8726 H         1 <0>         0.0548
     41 H6         -0.5289    1.8773    0.9072 H         1 <0>         0.0686
     42 H7          0.5123   -0.3556   -0.8948 H         1 <0>         0.0788
     43 H8          0.2319   -0.1594    2.1383 H         1 <0>         0.0734
     44 H9          0.7568   -1.6008    1.2356 H         1 <0>         0.0536
     45 H10         1.7647   -0.1336    1.2338 H         1 <0>         0.0599
     46 H11        -2.0141   -1.9062   -2.9433 H         1 <0>         0.0911
     47 H12        -0.5362   -1.0502   -2.4420 H         1 <0>         0.0983
     48 H13         0.1165   -2.9938   -1.0473 H         1 <0>         0.0715
     49 H14        -1.3614   -3.8499   -1.5487 H         1 <0>         0.0773
     50 H15         1.4492   -4.9538   -2.0924 H         1 <0>         0.0633
     51 H16        -0.1208   -5.6743   -2.5214 H         1 <0>         0.0743
     52 H17         2.5522   -7.0148   -3.2084 H         1 <0>         0.0564
     53 H18         0.9059   -7.5927   -3.5603 H         1 <0>         0.0610
     54 H19         3.1074   -4.7288   -3.8751 H         1 <0>         0.3502
     55 H20         1.8360   -2.6300   -2.7471 H         1 <0>         0.3662
     56 H21        -4.6260   -1.8720   -2.2282 H         1 <0>         0.0749
     57 H22        -3.7470   -3.3443   -1.7370 H         1 <0>         0.0733
     58 H23        -6.1980   -3.2781   -1.0289 H         1 <0>         0.0696
     59 H24        -5.0426   -3.5265    0.3015 H         1 <0>         0.0665
     60 H25        -6.1191   -0.7886   -0.4955 H         1 <0>         0.0642
     61 H26        -6.8552   -1.8007    0.7706 H         1 <0>         0.0653
     62 H27        -4.8272   -1.7499    2.0969 H         1 <0>         0.0671
     63 H28        -5.1686   -0.0690    1.6116 H         1 <0>         0.0679
     64 H29        -1.5433   -1.0001    3.3548 H         1 <0>         0.4036
     65 H30        -0.0684    1.9835    3.6100 H         1 <0>         0.0560
     66 H31        -0.0919    2.0820    5.3870 H         1 <0>         0.0534
     67 H32         1.7258    0.7508    4.5934 H         1 <0>         0.3779
     68 H33        -0.5887   -1.7407    4.8821 H         1 <0>         0.1239
     69 H34        -0.7818   -3.1886    6.8644 H         1 <0>         0.1219
     70 H35        -1.9869   -2.3917    8.8583 H         1 <0>         0.1203
     71 H36        -2.9983   -0.1467    8.8702 H         1 <0>         0.1216
     72 H37        -2.7981    1.3043    6.8909 H         1 <0>         0.1216
@<TRIPOS>BOND
     1    1    2 1
     2    1   39 1
     3    1   40 1
     4    1   41 1
     5    2    3 1
     6    2    4 1
     7    2   42 1
     8    3   43 1
     9    3   44 1
    10    3   45 1
    11    4    8 1
    12    4    5 2
    13    5    6 1
    14    5   26 1
    15    6   25 1
    16    6    7 2
    17    7    8 1
    18    7   22 1
    19    8    9 1
    20    9   10 1
    21    9   46 1
    22    9   47 1
    23   10   11 1
    24   10   48 1
    25   10   49 1
    26   11   12 1
    27   11   13 1
    28   11   21 1
    29   13   14 1
    30   13   50 1
    31   13   51 1
    32   14   15 1
    33   14   16 1
    34   14   20 1
    35   16   17 1
    36   16   52 1
    37   16   53 1
    38   17   18 2
    39   17   19 1
    40   20   54 1
    41   21   55 1
    42   22   23 1
    43   22   56 1
    44   22   57 1
    45   23   24 1
    46   23   58 1
    47   23   59 1
    48   24   25 1
    49   24   60 1
    50   24   61 1
    51   25   62 1
    52   25   63 1
    53   26   27 2
    54   26   28 am
    55   28   29 1
    56   28   64 1
    57   29   30 1
    58   29   31 1
    59   29   33 1
    60   31   32 1
    61   31   65 1
    62   31   66 1
    63   32   67 1
    64   33   38 ar
    65   33   34 ar
    66   34   35 ar
    67   34   68 1
    68   35   36 ar
    69   35   69 1
    70   36   37 ar
    71   36   70 1
    72   37   38 ar
    73   37   71 1
    74   38   72 1
@<TRIPOS>MOLECULE
CHEMBL488299
   71    73     0     0     0
SMALL
USER_CHARGES

@<TRIPOS>ATOM
      1 C1         -0.0187    1.5258    0.0104 C.3       1 <0>        -0.1478
      2 C2          0.0021   -0.0041    0.0020 C.3       1 <0>        -0.0334
      3 C3          0.7421   -0.5109    1.2415 C.3       1 <0>        -0.1472
      4 C4         -1.4117   -0.5257    0.0127 C.2       1 <0>         0.0873
      5 C5         -2.3476   -0.2823    0.9816 C.2       1 <0>        -0.2237
      6 C6         -3.5560   -0.9915    0.5604 C.2       1 <0>        -0.1242
      7 C7         -3.2621   -1.6002   -0.6020 C.2       1 <0>         0.0243
      8 N1         -1.9708   -1.3059   -0.9325 N.pl3     1 <0>        -0.4281
      9 C8         -1.2887   -1.7750   -2.1411 C.3       1 <0>         0.0997
     10 C9         -0.6065   -3.1141   -1.8544 C.3       1 <0>        -0.1656
     11 C10         0.1059   -3.6041   -3.1167 C.3       1 <0>         0.1167
     12 H1         -0.6050   -3.6464   -3.9419 H         1 <0>         0.0994
     13 C11         0.6822   -4.9995   -2.8680 C.3       1 <0>        -0.1855
     14 C12         1.2853   -5.5409   -4.1657 C.3       1 <0>         0.1377
     15 H2          0.5332   -5.5154   -4.9542 H         1 <0>         0.0930
     16 C13         1.7493   -6.9827   -3.9498 C.3       1 <0>        -0.2194
     17 C14         2.2302   -7.5569   -5.2575 C.2       1 <0>         0.4904
     18 O1          2.2041   -6.8759   -6.2685 O.co2     1 <0>        -0.6811
     19 O2          2.6452   -8.7023   -5.3045 O.co2     1 <0>        -0.7124
     20 O3          2.4013   -4.7332   -4.5456 O.3       1 <0>        -0.5279
     21 O4          1.1650   -2.7031   -3.4461 O.3       1 <0>        -0.5412
     22 C15        -4.2090   -2.4689   -1.3938 C.3       1 <0>        -0.0514
     23 C16        -5.5623   -1.7642   -1.5145 C.3       1 <0>        -0.1138
     24 C17        -6.4460   -2.1348   -0.3266 C.3       1 <0>        -0.1191
     25 C18        -5.6022   -2.3350    0.9299 C.3       1 <0>        -0.1216
     26 C19        -4.8799   -1.0295    1.2753 C.3       1 <0>        -0.0432
     27 C20        -2.1735    0.5275    2.1992 C.2       1 <0>         0.6061
     28 O5         -2.4211    1.7181    2.1784 O.2       1 <0>        -0.5375
     29 N2         -1.7398   -0.0508    3.3368 N.am      1 <0>        -0.7229
     30 C21        -1.5666    0.7547    4.5481 C.3       1 <0>         0.1603
     31 C22        -1.0763   -0.1240    5.6699 C.ar      1 <0>        -0.1075
     32 C23        -1.9834   -0.7614    6.4956 C.ar      1 <0>        -0.1006
     33 C24        -1.5336   -1.5675    7.5246 C.ar      1 <0>        -0.1219
     34 C25        -0.1767   -1.7365    7.7276 C.ar      1 <0>        -0.1130
     35 C26         0.7304   -1.0998    6.9014 C.ar      1 <0>        -0.1214
     36 C27         0.2806   -0.2971    5.8697 C.ar      1 <0>        -0.1002
     37 H3          1.0039    1.9031    0.0027 H         1 <0>         0.0594
     38 H4         -0.5459    1.8868   -0.8726 H         1 <0>         0.0554
     39 H5         -0.5289    1.8773    0.9072 H         1 <0>         0.0695
     40 H6          0.5123   -0.3556   -0.8948 H         1 <0>         0.0803
     41 H7          0.2319   -0.1594    2.1383 H         1 <0>         0.0633
     42 H8          0.7568   -1.6008    1.2356 H         1 <0>         0.0559
     43 H9          1.7647   -0.1336    1.2338 H         1 <0>         0.0624
     44 H10        -2.0162   -1.9022   -2.9427 H         1 <0>         0.0917
     45 H11        -0.5397   -1.0429   -2.4430 H         1 <0>         0.0983
     46 H12         0.1211   -2.9870   -1.0528 H         1 <0>         0.0711
     47 H13        -1.3555   -3.8462   -1.5526 H         1 <0>         0.0775
     48 H14         1.4571   -4.9416   -2.1036 H         1 <0>         0.0632
     49 H15        -0.1119   -5.6657   -2.5307 H         1 <0>         0.0743
     50 H16         2.5634   -6.9978   -3.2252 H         1 <0>         0.0563
     51 H17         0.9180   -7.5796   -3.5747 H         1 <0>         0.0609
     52 H18         3.1110   -4.7093   -3.8893 H         1 <0>         0.3502
     53 H19         1.8362   -2.6157   -2.7554 H         1 <0>         0.3661
     54 H20        -3.7986   -2.6414   -2.3887 H         1 <0>         0.0682
     55 H21        -4.3400   -3.4231   -0.8835 H         1 <0>         0.0843
     56 H22        -5.4089   -0.6852   -1.5293 H         1 <0>         0.0666
     57 H23        -6.0502   -2.0726   -2.4392 H         1 <0>         0.0666
     58 H24        -7.1667   -1.3359   -0.1518 H         1 <0>         0.0619
     59 H25        -6.9810   -3.0577   -0.5509 H         1 <0>         0.0605
     60 H26        -6.2483   -2.6230    1.7592 H         1 <0>         0.0614
     61 H27        -4.8675   -3.1205    0.7525 H         1 <0>         0.0704
     62 H28        -4.7142   -0.9788    2.3515 H         1 <0>         0.0620
     63 H29        -5.4886   -0.1821    0.9597 H         1 <0>         0.0688
     64 H30        -1.5423   -1.0003    3.3534 H         1 <0>         0.4025
     65 H31        -0.8380    1.5431    4.3591 H         1 <0>         0.0754
     66 H32        -2.5210    1.2013    4.8270 H         1 <0>         0.0751
     67 H33        -3.0435   -0.6294    6.3370 H         1 <0>         0.1235
     68 H34        -2.2423   -2.0649    8.1701 H         1 <0>         0.1233
     69 H35         0.1747   -2.3657    8.5320 H         1 <0>         0.1225
     70 H36         1.7905   -1.2315    7.0602 H         1 <0>         0.1238
     71 H37         0.9892    0.1973    5.2219 H         1 <0>         0.1239
@<TRIPOS>BOND
     1    1    2 1
     2    1   37 1
     3    1   38 1
     4    1   39 1
     5    2    3 1
     6    2    4 1
     7    2   40 1
     8    3   41 1
     9    3   42 1
    10    3   43 1
    11    4    8 1
    12    4    5 2
    13    5    6 1
    14    5   27 1
    15    6   26 1
    16    6    7 2
    17    7    8 1
    18    7   22 1
    19    8    9 1
    20    9   10 1
    21    9   44 1
    22    9   45 1
    23   10   11 1
    24   10   46 1
    25   10   47 1
    26   11   12 1
    27   11   13 1
    28   11   21 1
    29   13   14 1
    30   13   48 1
    31   13   49 1
    32   14   15 1
    33   14   16 1
    34   14   20 1
    35   16   17 1
    36   16   50 1
    37   16   51 1
    38   17   18 2
    39   17   19 1
    40   20   52 1
    41   21   53 1
    42   22   23 1
    43   22   54 1
    44   22   55 1
    45   23   24 1
    46   23   56 1
    47   23   57 1
    48   24   25 1
    49   24   58 1
    50   24   59 1
    51   25   26 1
    52   25   60 1
    53   25   61 1
    54   26   62 1
    55   26   63 1
    56   27   28 2
    57   27   29 am
    58   29   30 1
    59   29   64 1
    60   30   31 1
    61   30   65 1
    62   30   66 1
    63   31   36 ar
    64   31   32 ar
    65   32   33 ar
    66   32   67 1
    67   33   34 ar
    68   33   68 1
    69   34   35 ar
    70   34   69 1
    71   35   36 ar
    72   35   70 1
    73   36   71 1
@<TRIPOS>MOLECULE
CHEMBL47301
   47    49     0     0     0
SMALL
USER_CHARGES

@<TRIPOS>ATOM
      1 C1         -0.0167    1.3781    0.0096 C.ar      1 <0>        -0.1182
      2 C2          1.1709    2.0855    0.0021 C.ar      1 <0>        -0.1180
      3 C3          2.3773    1.4107   -0.0130 C.ar      1 <0>        -0.1129
      4 C4          2.3960    0.0285   -0.0201 C.ar      1 <0>        -0.0885
      5 C5          1.2084   -0.6789   -0.0117 C.ar      1 <0>        -0.1126
      6 C6          0.0021   -0.0041    0.0020 C.ar      1 <0>        -0.1176
      7 C7          3.7112   -0.7071   -0.0376 C.3       1 <0>        -0.0769
      8 C8          4.1714   -0.9633    1.3989 C.3       1 <0>         0.0605
      9 O1          5.4184   -1.6609    1.3824 O.3       1 <0>        -0.2962
     10 C9          5.9692   -1.9679    2.5854 C.ar      1 <0>         0.1709
     11 C10         5.3223   -1.6116    3.7573 C.ar      1 <0>        -0.1978
     12 C11         5.8836   -1.9245    4.9822 C.ar      1 <0>         0.0165
     13 C12         7.0940   -2.5948    5.0463 C.ar      1 <0>        -0.1378
     14 C13         7.7506   -2.9565    3.8870 C.ar      1 <0>         0.0164
     15 C14         7.1900   -2.6507    2.6453 C.ar      1 <0>        -0.0778
     16 C15         7.8841   -3.0406    1.4012 C.2       1 <0>        -0.0829
     17 C16         9.1683   -2.7510    1.2396 C.2       1 <0>        -0.1461
     18 C17         9.8765   -3.1489   -0.0298 C.3       1 <0>         0.1459
     19 C18        10.5184   -1.9130   -0.6658 C.3       1 <0>        -0.1478
     20 C19        11.2020   -2.3139   -1.9770 C.3       1 <0>         0.1042
     21 H1         11.6493   -1.4340   -2.4394 H         1 <0>         0.0815
     22 C20        10.1516   -2.9126   -2.9211 C.3       1 <0>        -0.2044
     23 C21         9.4084   -3.9999   -2.1762 C.2       1 <0>         0.4976
     24 O2          9.2449   -5.0907   -2.6692 O.2       1 <0>        -0.4509
     25 O3          8.9333   -3.7161   -0.9458 O.3       1 <0>        -0.3674
     26 O4         12.2176   -3.2832   -1.7105 O.3       1 <0>        -0.5636
     27 Cl1         9.2676   -3.7962    3.9728 Cl        1 <0>        -0.0372
     28 Cl2         5.0672   -1.4741    6.4466 Cl        1 <0>        -0.0488
     29 H2         -0.9591    1.9053    0.0259 H         1 <0>         0.1232
     30 H3          1.1563    3.1654    0.0076 H         1 <0>         0.1240
     31 H4          3.3051    1.9634   -0.0196 H         1 <0>         0.1232
     32 H5          1.2231   -1.7588   -0.0176 H         1 <0>         0.1236
     33 H6         -0.9258   -0.5567    0.0082 H         1 <0>         0.1242
     34 H7          3.5884   -1.6586   -0.5549 H         1 <0>         0.0867
     35 H8          4.4573   -0.1052   -0.5563 H         1 <0>         0.0860
     36 H9          4.2941   -0.0118    1.9163 H         1 <0>         0.0688
     37 H10         3.4252   -1.5652    1.9176 H         1 <0>         0.0690
     38 H11         4.3785   -1.0884    3.7145 H         1 <0>         0.1468
     39 H12         7.5258   -2.8351    6.0066 H         1 <0>         0.1487
     40 H13         7.3460   -3.5616    0.6231 H         1 <0>         0.1396
     41 H14         9.7064   -2.2300    2.0176 H         1 <0>         0.1355
     42 H15        10.6485   -3.8835    0.1992 H         1 <0>         0.0974
     43 H16         9.7493   -1.1679   -0.8696 H         1 <0>         0.0982
     44 H17        11.2581   -1.4952    0.0171 H         1 <0>         0.1004
     45 H18         9.4523   -2.1365   -3.2323 H         1 <0>         0.1192
     46 H19        10.6435   -3.3371   -3.7962 H         1 <0>         0.1086
     47 H20        12.6922   -3.5822   -2.4981 H         1 <0>         0.3869
@<TRIPOS>BOND
     1    1    6 ar
     2    1    2 ar
     3    1   29 1
     4    2    3 ar
     5    2   30 1
     6    3    4 ar
     7    3   31 1
     8    4    5 ar
     9    4    7 1
    10    5    6 ar
    11    5   32 1
    12    6   33 1
    13    7    8 1
    14    7   34 1
    15    7   35 1
    16    8    9 1
    17    8   36 1
    18    8   37 1
    19    9   10 1
    20   10   15 ar
    21   10   11 ar
    22   11   12 ar
    23   11   38 1
    24   12   13 ar
    25   12   28 1
    26   13   14 ar
    27   13   39 1
    28   14   15 ar
    29   14   27 1
    30   15   16 1
    31   16   17 2
    32   16   40 1
    33   17   18 1
    34   17   41 1
    35   18   25 1
    36   18   19 1
    37   18   42 1
    38   19   20 1
    39   19   43 1
    40   19   44 1
    41   20   21 1
    42   20   22 1
    43   20   26 1
    44   22   23 1
    45   22   45 1
    46   22   46 1
    47   23   24 2
    48   23   25 1
    49   26   47 1
@<TRIPOS>MOLECULE
CHEMBL47301__1
   47    49     0     0     0
SMALL
USER_CHARGES

@<TRIPOS>ATOM
      1 C1         -0.0167    1.3781    0.0096 C.ar      1 <0>        -0.1178
      2 C2          1.1709    2.0855    0.0021 C.ar      1 <0>        -0.1178
      3 C3          2.3773    1.4107   -0.0130 C.ar      1 <0>        -0.1127
      4 C4          2.3960    0.0285   -0.0201 C.ar      1 <0>        -0.0894
      5 C5          1.2084   -0.6789   -0.0117 C.ar      1 <0>        -0.1128
      6 C6          0.0021   -0.0041    0.0020 C.ar      1 <0>        -0.1177
      7 C7          3.7112   -0.7071   -0.0376 C.3       1 <0>        -0.0767
      8 C8          4.1714   -0.9633    1.3989 C.3       1 <0>         0.0602
      9 O1          5.4184   -1.6609    1.3824 O.3       1 <0>        -0.2984
     10 C9          5.9692   -1.9679    2.5854 C.ar      1 <0>         0.1732
     11 C10         5.3223   -1.6116    3.7573 C.ar      1 <0>        -0.1989
     12 C11         5.8836   -1.9245    4.9822 C.ar      1 <0>         0.0199
     13 C12         7.0940   -2.5948    5.0463 C.ar      1 <0>        -0.1388
     14 C13         7.7506   -2.9565    3.8870 C.ar      1 <0>         0.0193
     15 C14         7.1900   -2.6507    2.6453 C.ar      1 <0>        -0.0829
     16 C15         7.8841   -3.0406    1.4012 C.2       1 <0>        -0.0776
     17 C16         9.1683   -2.7510    1.2396 C.2       1 <0>        -0.1328
     18 C17         9.8765   -3.1489   -0.0298 C.3       1 <0>         0.1456
     19 C18        10.4200   -1.8980   -0.7254 C.3       1 <0>        -0.1516
     20 C19        11.1748   -2.3097   -1.9934 C.3       1 <0>         0.1095
     21 H1         10.4963   -2.8296   -2.6697 H         1 <0>         0.0686
     22 C20        12.3272   -3.2440   -1.6033 C.3       1 <0>        -0.2048
     23 C21        11.7658   -4.3590   -0.7483 C.2       1 <0>         0.4918
     24 O2         12.0279   -5.5148   -0.9836 O.2       1 <0>        -0.4467
     25 O3         10.9643   -4.0255    0.2844 O.3       1 <0>        -0.3611
     26 O4         11.6962   -1.1464   -2.6392 O.3       1 <0>        -0.5547
     27 Cl1         9.2676   -3.7962    3.9728 Cl        1 <0>        -0.0298
     28 Cl2         5.0672   -1.4741    6.4466 Cl        1 <0>        -0.0471
     29 H2         -0.9591    1.9053    0.0259 H         1 <0>         0.1234
     30 H3          1.1563    3.1654    0.0076 H         1 <0>         0.1242
     31 H4          3.3051    1.9634   -0.0196 H         1 <0>         0.1235
     32 H5          1.2231   -1.7588   -0.0176 H         1 <0>         0.1234
     33 H6         -0.9258   -0.5567    0.0082 H         1 <0>         0.1242
     34 H7          3.5884   -1.6586   -0.5549 H         1 <0>         0.0864
     35 H8          4.4573   -0.1052   -0.5563 H         1 <0>         0.0866
     36 H9          4.2941   -0.0118    1.9163 H         1 <0>         0.0697
     37 H10         3.4252   -1.5652    1.9176 H         1 <0>         0.0696
     38 H11         4.3785   -1.0884    3.7145 H         1 <0>         0.1476
     39 H12         7.5258   -2.8351    6.0066 H         1 <0>         0.1497
     40 H13         7.3460   -3.5616    0.6231 H         1 <0>         0.1325
     41 H14         9.7064   -2.2300    2.0176 H         1 <0>         0.1287
     42 H15         9.1772   -3.6594   -0.6919 H         1 <0>         0.0852
     43 H16         9.5919   -1.2414   -0.9922 H         1 <0>         0.1013
     44 H17        11.0984   -1.3734   -0.0525 H         1 <0>         0.0934
     45 H18        12.7810   -3.6627   -2.5016 H         1 <0>         0.1081
     46 H19        13.0754   -2.6885   -1.0379 H         1 <0>         0.1187
     47 H20        12.1870   -1.3339   -3.4510 H         1 <0>         0.3859
@<TRIPOS>BOND
     1    1    6 ar
     2    1    2 ar
     3    1   29 1
     4    2    3 ar
     5    2   30 1
     6    3    4 ar
     7    3   31 1
     8    4    5 ar
     9    4    7 1
    10    5    6 ar
    11    5   32 1
    12    6   33 1
    13    7    8 1
    14    7   34 1
    15    7   35 1
    16    8    9 1
    17    8   36 1
    18    8   37 1
    19    9   10 1
    20   10   15 ar
    21   10   11 ar
    22   11   12 ar
    23   11   38 1
    24   12   13 ar
    25   12   28 1
    26   13   14 ar
    27   13   39 1
    28   14   15 ar
    29   14   27 1
    30   15   16 1
    31   16   17 2
    32   16   40 1
    33   17   18 1
    34   17   41 1
    35   18   25 1
    36   18   19 1
    37   18   42 1
    38   19   20 1
    39   19   43 1
    40   19   44 1
    41   20   21 1
    42   20   22 1
    43   20   26 1
    44   22   23 1
    45   22   45 1
    46   22   46 1
    47   23   24 2
    48   23   25 1
    49   26   47 1
@<TRIPOS>MOLECULE
CHEMBL488297
   67    69     0     0     0
SMALL
USER_CHARGES

@<TRIPOS>ATOM
      1 C1          0.7735   -1.5492    0.4473 C.3       1 <0>        -0.1578
      2 C2         -0.1869   -0.3582    0.4430 C.3       1 <0>        -0.0424
      3 C3          0.2858    0.6745   -0.5822 C.3       1 <0>        -0.1490
      4 C4         -1.5710   -0.8303    0.0788 C.2       1 <0>         0.0963
      5 C5         -2.7114   -0.6415    0.8054 C.2       1 <0>        -0.0626
      6 N1         -3.7311   -1.2163    0.1337 N.2       1 <0>        -0.4407
      7 C6         -3.2688   -1.7490   -0.9714 C.2       1 <0>         0.2399
      8 N2         -1.9227   -1.5201   -1.0387 N.pl3     1 <0>        -0.4335
      9 C7         -1.0239   -1.9435   -2.1152 C.3       1 <0>         0.0825
     10 C8         -0.5310   -3.3653   -1.8385 C.3       1 <0>        -0.1907
     11 C9          0.4191   -3.8021   -2.9553 C.3       1 <0>         0.1171
     12 H1         -0.0790   -3.6946   -3.9189 H         1 <0>         0.1020
     13 C10         0.8139   -5.2654   -2.7458 C.3       1 <0>        -0.1875
     14 C11         1.6627   -5.7389   -3.9275 C.3       1 <0>         0.1383
     15 H2          1.1211   -5.5637   -4.8571 H         1 <0>         0.0938
     16 C12         1.9529   -7.2338   -3.7803 C.3       1 <0>        -0.2200
     17 C13         2.6831   -7.7265   -5.0031 C.2       1 <0>         0.4904
     18 O1          2.9468   -6.9536   -5.9084 O.co2     1 <0>        -0.6810
     19 O2          3.0100   -8.8981   -5.0871 O.co2     1 <0>        -0.7119
     20 O3          2.8943   -5.0145   -3.9499 O.3       1 <0>        -0.5276
     21 O4          1.5908   -2.9844   -2.9309 O.3       1 <0>        -0.5382
     22 C14        -4.0718   -2.4730   -1.9810 C.ar      1 <0>         0.0107
     23 C15        -3.4407   -3.2710   -2.9360 C.ar      1 <0>        -0.1149
     24 C16        -4.1928   -3.9445   -3.8758 C.ar      1 <0>        -0.1149
     25 C17        -5.5735   -3.8303   -3.8736 C.ar      1 <0>         0.0772
     26 C18        -6.2071   -3.0383   -2.9264 C.ar      1 <0>         0.0728
     27 C19        -5.4627   -2.3646   -1.9777 C.ar      1 <0>        -0.0892
     28 F1         -7.5538   -2.9301   -2.9290 F         1 <0>        -0.1240
     29 F2         -6.3054   -4.4918   -4.7966 F         1 <0>        -0.1235
     30 C20        -2.8112    0.0649    2.0948 C.2       1 <0>         0.6095
     31 O5         -1.8040    0.4536    2.6548 O.2       1 <0>        -0.5396
     32 N3         -4.0187    0.2802    2.6535 N.am      1 <0>        -0.7139
     33 C21        -4.1179    0.9824    3.9354 C.3       1 <0>         0.1623
     34 C22        -5.5662    1.0921    4.3373 C.ar      1 <0>        -0.1088
     35 C23        -6.3134    2.1845    3.9382 C.ar      1 <0>        -0.0996
     36 C24        -7.6419    2.2851    4.3068 C.ar      1 <0>        -0.1223
     37 C25        -8.2233    1.2931    5.0742 C.ar      1 <0>        -0.1124
     38 C26        -7.4763    0.2003    5.4726 C.ar      1 <0>        -0.1219
     39 C27        -6.1490    0.0976    5.1003 C.ar      1 <0>        -0.0990
     40 H3          1.7308   -1.2424    0.8687 H         1 <0>         0.0699
     41 H4          0.3521   -2.3535    1.0502 H         1 <0>         0.0576
     42 H5          0.9218   -1.9000   -0.5740 H         1 <0>         0.0636
     43 H6         -0.2069    0.0961    1.4336 H         1 <0>         0.1283
     44 H7          0.2182    0.2497   -1.5837 H         1 <0>         0.0552
     45 H8         -0.3438    1.5621   -0.5207 H         1 <0>         0.0586
     46 H9          1.3201    0.9475   -0.3724 H         1 <0>         0.0702
     47 H10        -1.5590   -1.9228   -3.0646 H         1 <0>         0.1045
     48 H11        -0.1711   -1.2664   -2.1640 H         1 <0>         0.1176
     49 H12        -0.0049   -3.3882   -0.8842 H         1 <0>         0.0890
     50 H13        -1.3830   -4.0441   -1.8001 H         1 <0>         0.0866
     51 H14         1.3895   -5.3581   -1.8248 H         1 <0>         0.0655
     52 H15        -0.0850   -5.8778   -2.6756 H         1 <0>         0.0760
     53 H16         2.5704   -7.3989   -2.8974 H         1 <0>         0.0566
     54 H17         1.0142   -7.7775   -3.6740 H         1 <0>         0.0612
     55 H18         3.4296   -5.1240   -3.1521 H         1 <0>         0.3507
     56 H19         2.0853   -3.0305   -2.1012 H         1 <0>         0.3675
     57 H20        -2.3645   -3.3609   -2.9396 H         1 <0>         0.1569
     58 H21        -3.7044   -4.5618   -4.6152 H         1 <0>         0.1569
     59 H22        -5.9560   -1.7521   -1.2376 H         1 <0>         0.1580
     60 H23        -4.8220   -0.0298    2.2069 H         1 <0>         0.4100
     61 H24        -3.5705    0.4273    4.6971 H         1 <0>         0.0776
     62 H25        -3.6916    1.9808    3.8367 H         1 <0>         0.0776
     63 H26        -5.8592    2.9595    3.3387 H         1 <0>         0.1239
     64 H27        -8.2255    3.1389    3.9956 H         1 <0>         0.1237
     65 H28        -9.2610    1.3721    5.3628 H         1 <0>         0.1226
     66 H29        -7.9304   -0.5745    6.0724 H         1 <0>         0.1239
     67 H30        -5.5664   -0.7580    5.4084 H         1 <0>         0.1243
@<TRIPOS>BOND
     1    1    2 1
     2    1   40 1
     3    1   41 1
     4    1   42 1
     5    2    3 1
     6    2    4 1
     7    2   43 1
     8    3   44 1
     9    3   45 1
    10    3   46 1
    11    4    8 1
    12    4    5 2
    13    5    6 1
    14    5   30 1
    15    6    7 2
    16    7    8 1
    17    7   22 1
    18    8    9 1
    19    9   10 1
    20    9   47 1
    21    9   48 1
    22   10   11 1
    23   10   49 1
    24   10   50 1
    25   11   12 1
    26   11   13 1
    27   11   21 1
    28   13   14 1
    29   13   51 1
    30   13   52 1
    31   14   15 1
    32   14   16 1
    33   14   20 1
    34   16   17 1
    35   16   53 1
    36   16   54 1
    37   17   18 2
    38   17   19 1
    39   20   55 1
    40   21   56 1
    41   22   27 ar
    42   22   23 ar
    43   23   24 ar
    44   23   57 1
    45   24   25 ar
    46   24   58 1
    47   25   26 ar
    48   25   29 1
    49   26   27 ar
    50   26   28 1
    51   27   59 1
    52   30   31 2
    53   30   32 am
    54   32   33 1
    55   32   60 1
    56   33   34 1
    57   33   61 1
    58   33   62 1
    59   34   39 ar
    60   34   35 ar
    61   35   36 ar
    62   35   63 1
    63   36   37 ar
    64   36   64 1
    65   37   38 ar
    66   37   65 1
    67   38   39 ar
    68   38   66 1
    69   39   67 1
@<TRIPOS>MOLECULE
CHEMBL503128
   77    80     0     0     0
SMALL
USER_CHARGES

@<TRIPOS>ATOM
      1 C1          0.7751   -1.5740    0.4459 C.3       1 <0>        -0.1576
      2 C2         -0.1838   -0.3817    0.4539 C.3       1 <0>        -0.0418
      3 C3          0.2881    0.6591   -0.5634 C.3       1 <0>        -0.1488
      4 C4         -1.5692   -0.8489    0.0887 C.2       1 <0>         0.0917
      5 C5         -2.7078   -0.6648    0.8194 C.2       1 <0>        -0.0643
      6 N1         -3.7298   -1.2319    0.1447 N.2       1 <0>        -0.4458
      7 C6         -3.2708   -1.7553   -0.9661 C.2       1 <0>         0.2465
      8 N2         -1.9243   -1.5288   -1.0338 N.pl3     1 <0>        -0.4358
      9 C7         -1.0284   -1.9443   -2.1159 C.3       1 <0>         0.0845
     10 C8         -0.5370   -3.3690   -1.8524 C.3       1 <0>        -0.1895
     11 C9          0.4109   -3.7973   -2.9745 C.3       1 <0>         0.1173
     12 H1         -0.0885   -3.6807   -3.9363 H         1 <0>         0.1016
     13 C10         0.8041   -5.2628   -2.7784 C.3       1 <0>        -0.1872
     14 C11         1.6504   -5.7271   -3.9655 C.3       1 <0>         0.1383
     15 H2          1.1077   -5.5430   -4.8927 H         1 <0>         0.0937
     16 C12         1.9389   -7.2237   -3.8319 C.3       1 <0>        -0.2198
     17 C13         2.6665   -7.7066   -5.0601 C.2       1 <0>         0.4905
     18 O1          2.9299   -6.9261   -5.9589 O.co2     1 <0>        -0.6810
     19 O2          2.9918   -8.8778   -5.1549 O.co2     1 <0>        -0.7120
     20 O3          2.8829   -5.0041   -3.9834 O.3       1 <0>        -0.5275
     21 O4          1.5837   -2.9814   -2.9447 O.3       1 <0>        -0.5384
     22 C14        -4.0771   -2.4682   -1.9809 C.ar      1 <0>        -0.0226
     23 C15        -3.4498   -3.2593   -2.9441 C.ar      1 <0>        -0.1034
     24 C16        -4.2062   -3.9223   -3.8877 C.ar      1 <0>        -0.1454
     25 C17        -5.5870   -3.8038   -3.8804 C.ar      1 <0>         0.1089
     26 C18        -6.2149   -3.0189   -2.9262 C.ar      1 <0>        -0.1515
     27 C19        -5.4680   -2.3564   -1.9747 C.ar      1 <0>        -0.0510
     28 F1         -6.3235   -4.4552   -4.8069 F         1 <0>        -0.1355
     29 C20        -2.8037    0.0297    2.1155 C.2       1 <0>         0.6100
     30 O5         -1.7947    0.4115    2.6769 O.2       1 <0>        -0.5404
     31 N3         -4.0096    0.2418    2.6788 N.am      1 <0>        -0.7145
     32 C21        -4.1049    0.9322    3.9674 C.3       1 <0>         0.1620
     33 C22        -5.5522    1.0406    4.3734 C.ar      1 <0>        -0.1057
     34 C23        -6.2965    2.1396    3.9844 C.ar      1 <0>        -0.0950
     35 C24        -7.6224    2.2440    4.3534 C.ar      1 <0>        -0.1122
     36 C25        -8.2108    1.2396    5.1192 C.ar      1 <0>        -0.0382
     37 C26        -7.4563    0.1346    5.5082 C.ar      1 <0>        -0.1118
     38 C27        -6.1328    0.0378    5.1288 C.ar      1 <0>        -0.0944
     39 C28        -9.6358    1.3465    5.5194 C.ar      1 <0>        -0.0472
     40 C29       -10.3917    2.4488    5.1259 C.ar      1 <0>        -0.1100
     41 C30       -11.7167    2.5429    5.5006 C.ar      1 <0>        -0.1181
     42 C31       -12.2943    1.5457    6.2656 C.ar      1 <0>        -0.1188
     43 C32       -11.5484    0.4494    6.6594 C.ar      1 <0>        -0.1178
     44 C33       -10.2242    0.3421    6.2852 C.ar      1 <0>        -0.1098
     45 H3          1.7336   -1.2722    0.8682 H         1 <0>         0.0692
     46 H4          0.3538   -2.3830    1.0426 H         1 <0>         0.0571
     47 H5          0.9210   -1.9161   -0.5787 H         1 <0>         0.0634
     48 H6         -0.2010    0.0640    1.4484 H         1 <0>         0.1274
     49 H7          0.2177    0.2428   -1.5684 H         1 <0>         0.0549
     50 H8         -0.3402    1.5469   -0.4930 H         1 <0>         0.0582
     51 H9          1.3232    0.9289   -0.3537 H         1 <0>         0.0695
     52 H10        -1.5655   -1.9146   -3.0639 H         1 <0>         0.1034
     53 H11        -0.1747   -1.2680   -2.1606 H         1 <0>         0.1158
     54 H12        -0.0094   -3.4010   -0.8991 H         1 <0>         0.0880
     55 H13        -1.3898   -4.0471   -1.8186 H         1 <0>         0.0861
     56 H14         1.3810   -5.3644   -1.8591 H         1 <0>         0.0653
     57 H15        -0.0956   -5.8747   -2.7122 H         1 <0>         0.0757
     58 H16         2.5575   -7.3973   -2.9514 H         1 <0>         0.0566
     59 H17         0.9996   -7.7670   -3.7289 H         1 <0>         0.0611
     60 H18         3.4193   -5.1214   -3.1874 H         1 <0>         0.3506
     61 H19         2.0794   -3.0354   -2.1162 H         1 <0>         0.3672
     62 H20        -2.3738   -3.3520   -2.9508 H         1 <0>         0.1497
     63 H21        -3.7216   -4.5345   -4.6338 H         1 <0>         0.1449
     64 H22        -7.2912   -2.9296   -2.9250 H         1 <0>         0.1415
     65 H23        -5.9585   -1.7487   -1.2287 H         1 <0>         0.1447
     66 H24        -4.8144   -0.0627    2.2310 H         1 <0>         0.4100
     67 H25        -3.5568    0.3691    4.7227 H         1 <0>         0.0779
     68 H26        -3.6772    1.9307    3.8771 H         1 <0>         0.0779
     69 H27        -5.8393    2.9177    3.3912 H         1 <0>         0.1271
     70 H28        -8.2026    3.1027    4.0495 H         1 <0>         0.1270
     71 H29        -7.9074   -0.6465    6.1021 H         1 <0>         0.1272
     72 H30        -5.5483   -0.8204    5.4258 H         1 <0>         0.1274
     73 H31        -9.9416    3.2283    4.5292 H         1 <0>         0.1256
     74 H32       -12.3036    3.3969    5.1961 H         1 <0>         0.1243
     75 H33       -13.3314    1.6235    6.5568 H         1 <0>         0.1227
     76 H34       -12.0042   -0.3261    7.2570 H         1 <0>         0.1245
     77 H35        -9.6439   -0.5164    6.5894 H         1 <0>         0.1258
@<TRIPOS>BOND
     1    1    2 1
     2    1   45 1
     3    1   46 1
     4    1   47 1
     5    2    3 1
     6    2    4 1
     7    2   48 1
     8    3   49 1
     9    3   50 1
    10    3   51 1
    11    4    8 1
    12    4    5 2
    13    5    6 1
    14    5   29 1
    15    6    7 2
    16    7    8 1
    17    7   22 1
    18    8    9 1
    19    9   10 1
    20    9   52 1
    21    9   53 1
    22   10   11 1
    23   10   54 1
    24   10   55 1
    25   11   12 1
    26   11   13 1
    27   11   21 1
    28   13   14 1
    29   13   56 1
    30   13   57 1
    31   14   15 1
    32   14   16 1
    33   14   20 1
    34   16   17 1
    35   16   58 1
    36   16   59 1
    37   17   18 2
    38   17   19 1
    39   20   60 1
    40   21   61 1
    41   22   27 ar
    42   22   23 ar
    43   23   24 ar
    44   23   62 1
    45   24   25 ar
    46   24   63 1
    47   25   26 ar
    48   25   28 1
    49   26   27 ar
    50   26   64 1
    51   27   65 1
    52   29   30 2
    53   29   31 am
    54   31   32 1
    55   31   66 1
    56   32   33 1
    57   32   67 1
    58   32   68 1
    59   33   38 ar
    60   33   34 ar
    61   34   35 ar
    62   34   69 1
    63   35   36 ar
    64   35   70 1
    65   36   37 ar
    66   36   39 1
    67   37   38 ar
    68   37   71 1
    69   38   72 1
    70   39   44 ar
    71   39   40 ar
    72   40   41 ar
    73   40   73 1
    74   41   42 ar
    75   41   74 1
    76   42   43 ar
    77   42   75 1
    78   43   44 ar
    79   43   76 1
    80   44   77 1
@<TRIPOS>MOLECULE
CHEMBL152893
   64    66     0     0     0
SMALL
USER_CHARGES

@<TRIPOS>ATOM
      1 C1         -0.2598    1.7614   -0.1275 C.3       1 <0>        -0.1467
      2 C2         -0.1037    0.2394   -0.1229 C.3       1 <0>        -0.0187
      3 C3          0.7275   -0.1844    1.0897 C.3       1 <0>        -0.1458
      4 C4         -1.4641   -0.4048   -0.0493 C.2       1 <0>        -0.1203
      5 C5         -2.0581   -1.2670   -0.9343 C.2       1 <0>        -0.0846
      6 C6         -3.3346   -1.7351   -0.6497 C.2       1 <0>        -0.0802
      7 C7         -3.9461   -1.3187    0.4977 C.2       1 <0>        -0.1199
      8 S1         -2.7128   -0.2474    1.2163 S.3       1 <0>         0.0506
      9 C8         -5.2858   -1.6700    1.0156 C.ar      1 <0>        -0.0043
     10 C9         -5.7360   -1.1273    2.2200 C.ar      1 <0>        -0.1086
     11 C10        -6.9870   -1.4592    2.6977 C.ar      1 <0>        -0.1210
     12 C11        -7.7944   -2.3284    1.9858 C.ar      1 <0>        -0.1158
     13 C12        -7.3541   -2.8699    0.7913 C.ar      1 <0>        -0.1265
     14 C13        -6.1077   -2.5413    0.2994 C.ar      1 <0>        -0.1734
     15 C14        -4.0317   -2.6841   -1.5902 C.3       1 <0>        -0.0349
     16 C15        -5.3327   -2.0486   -2.0845 C.3       1 <0>        -0.1677
     17 C16        -6.0404   -3.0122   -3.0393 C.3       1 <0>        -0.1206
     18 C17        -6.3567   -4.3169   -2.3055 C.3       1 <0>        -0.1336
     19 C18        -5.0556   -4.9524   -1.8112 C.3       1 <0>        -0.1202
     20 C19        -4.3480   -3.9889   -0.8564 C.3       1 <0>        -0.1683
     21 C20        -1.3558   -1.6890   -2.1644 C.2       1 <0>        -0.1041
     22 C21        -0.8069   -0.7807   -2.9592 C.2       1 <0>        -0.1714
     23 C22        -0.0908   -1.2109   -4.2135 C.3       1 <0>         0.1419
     24 H1          0.9676   -0.9637   -4.1306 H         1 <0>         0.1079
     25 C23        -0.6914   -0.4841   -5.4184 C.3       1 <0>        -0.1803
     26 C24         0.1148   -0.8249   -6.6734 C.3       1 <0>         0.1373
     27 H2          1.1659   -0.5912   -6.5045 H         1 <0>         0.0934
     28 C25        -0.4072   -0.0030   -7.8536 C.3       1 <0>        -0.2190
     29 C26         0.4636   -0.2462   -9.0593 C.2       1 <0>         0.4905
     30 O1          1.4137   -1.0064   -8.9817 O.co2     1 <0>        -0.6811
     31 O2          0.2181    0.3172  -10.1122 O.co2     1 <0>        -0.7130
     32 O3         -0.0229   -2.2171   -6.9645 O.3       1 <0>        -0.5279
     33 O4         -0.2383   -2.6217   -4.3861 O.3       1 <0>        -0.5381
     34 H3          0.7242    2.2273   -0.1808 H         1 <0>         0.0659
     35 H4         -0.8520    2.0633   -0.9914 H         1 <0>         0.0595
     36 H5         -0.7627    2.0779    0.7863 H         1 <0>         0.0565
     37 H6          0.3992   -0.0771   -1.0366 H         1 <0>         0.1006
     38 H7          0.2245    0.1321    2.0035 H         1 <0>         0.0554
     39 H8          0.8386   -1.2687    1.0931 H         1 <0>         0.0596
     40 H9          1.7114    0.2816    1.0365 H         1 <0>         0.0649
     41 H10        -5.1064   -0.4492    2.7769 H         1 <0>         0.1206
     42 H11        -7.3366   -1.0399    3.6296 H         1 <0>         0.1238
     43 H12        -8.7726   -2.5855    2.3645 H         1 <0>         0.1219
     44 H13        -7.9892   -3.5478    0.2404 H         1 <0>         0.1257
     45 H14        -5.7670   -2.9609   -0.6356 H         1 <0>         0.2206
     46 H15        -3.3836   -2.8938   -2.4412 H         1 <0>         0.0873
     47 H16        -5.9808   -1.8390   -1.2335 H         1 <0>         0.1103
     48 H17        -5.1074   -1.1191   -2.6073 H         1 <0>         0.0663
     49 H18        -6.9673   -2.5594   -3.3914 H         1 <0>         0.0653
     50 H19        -5.3923   -3.2218   -3.8902 H         1 <0>         0.0668
     51 H20        -7.0048   -4.1072   -1.4545 H         1 <0>         0.0655
     52 H21        -6.8608   -5.0033   -2.9857 H         1 <0>         0.0668
     53 H22        -5.2810   -5.8819   -1.2884 H         1 <0>         0.0649
     54 H23        -4.4075   -5.1621   -2.6622 H         1 <0>         0.0667
     55 H24        -3.4211   -4.4416   -0.5043 H         1 <0>         0.0663
     56 H25        -4.9961   -3.7792   -0.0054 H         1 <0>         0.1106
     57 H26        -1.2897   -2.7372   -2.4160 H         1 <0>         0.1274
     58 H27        -0.8730    0.2676   -2.7077 H         1 <0>         0.1154
     59 H28        -1.7259   -0.7995   -5.5544 H         1 <0>         0.0633
     60 H29        -0.6592    0.5918   -5.2469 H         1 <0>         0.0749
     61 H30        -1.4312   -0.3008   -8.0791 H         1 <0>         0.0561
     62 H31        -0.3849    1.0561   -7.5970 H         1 <0>         0.0610
     63 H32        -0.9343   -2.4969   -7.1261 H         1 <0>         0.3498
     64 H33        -1.1565   -2.9142   -4.4671 H         1 <0>         0.3649
@<TRIPOS>BOND
     1    1    2 1
     2    1   34 1
     3    1   35 1
     4    1   36 1
     5    2    3 1
     6    2    4 1
     7    2   37 1
     8    3   38 1
     9    3   39 1
    10    3   40 1
    11    4    8 1
    12    4    5 2
    13    5    6 1
    14    5   21 1
    15    6    7 2
    16    6   15 1
    17    7    8 1
    18    7    9 1
    19    9   14 ar
    20    9   10 ar
    21   10   11 ar
    22   10   41 1
    23   11   12 ar
    24   11   42 1
    25   12   13 ar
    26   12   43 1
    27   13   14 ar
    28   13   44 1
    29   14   45 1
    30   15   20 1
    31   15   16 1
    32   15   46 1
    33   16   17 1
    34   16   47 1
    35   16   48 1
    36   17   18 1
    37   17   49 1
    38   17   50 1
    39   18   19 1
    40   18   51 1
    41   18   52 1
    42   19   20 1
    43   19   53 1
    44   19   54 1
    45   20   55 1
    46   20   56 1
    47   21   22 2
    48   21   57 1
    49   22   23 1
    50   22   58 1
    51   23   24 1
    52   23   25 1
    53   23   33 1
    54   25   26 1
    55   25   59 1
    56   25   60 1
    57   26   27 1
    58   26   28 1
    59   26   32 1
    60   28   29 1
    61   28   61 1
    62   28   62 1
    63   29   30 2
    64   29   31 1
    65   32   63 1
    66   33   64 1
@<TRIPOS>MOLECULE
CHEMBL316712
   55    56     0     0     0
SMALL
USER_CHARGES

@<TRIPOS>ATOM
      1 C1          0.1953    1.7604    0.5264 C.3       1 <0>        -0.1167
      2 C2          0.1168    0.2799    0.2562 C.ar      1 <0>        -0.0890
      3 C3         -0.0197   -0.1801   -1.0394 C.ar      1 <0>        -0.1024
      4 C4         -0.0918   -1.5391   -1.2880 C.ar      1 <0>        -0.0356
      5 C5         -0.0273   -2.4404   -0.2398 C.ar      1 <0>        -0.1014
      6 C6          0.1092   -1.9845    1.0568 C.ar      1 <0>        -0.0829
      7 C7          0.1874   -0.6221    1.3075 C.ar      1 <0>         0.1074
      8 O1          0.3278   -0.1718    2.5823 O.3       1 <0>        -0.3157
      9 C8          1.6589    0.0727    3.0410 C.3       1 <0>         0.0345
     10 C9          1.6169    0.5645    4.4893 C.3       1 <0>         0.1185
     11 C10         3.0288    0.9446    4.9399 C.3       1 <0>        -0.1848
     12 C11         2.9700    1.5525    6.3427 C.3       1 <0>         0.1395
     13 H1          2.2723    2.3899    6.3469 H         1 <0>         0.0952
     14 C12         4.3617    2.0463    6.7432 C.3       1 <0>        -0.2193
     15 C13         4.2806    2.7543    8.0711 C.2       1 <0>         0.4904
     16 O2          3.2091    2.8546    8.6440 O.co2     1 <0>        -0.6800
     17 O3          5.2865    3.2267    8.5725 O.co2     1 <0>        -0.7123
     18 O4          2.5302    0.5613    7.2733 O.3       1 <0>        -0.5263
     19 O5          1.1119   -0.4743    5.3306 O.3       1 <0>        -0.5295
     20 C14         0.1788   -2.9664    2.1979 C.3       1 <0>        -0.0692
     21 C15        -1.2191   -3.1623    2.7881 C.3       1 <0>        -0.1100
     22 C16        -1.1560   -4.1924    3.9177 C.3       1 <0>         0.0599
     23 O6         -2.4616   -4.3754    4.4689 O.3       1 <0>        -0.3089
     24 C17        -2.5812   -5.2644    5.4901 C.ar      1 <0>         0.1413
     25 C18        -1.4638   -5.9421    5.9554 C.ar      1 <0>        -0.1970
     26 C19        -1.5873   -6.8453    6.9933 C.ar      1 <0>        -0.0679
     27 C20        -2.8247   -7.0746    7.5685 C.ar      1 <0>        -0.0758
     28 C21        -3.9405   -6.4000    7.1055 C.ar      1 <0>        -0.0701
     29 C22        -3.8199   -5.4911    6.0721 C.ar      1 <0>        -0.1417
     30 Cl1        -2.9776   -8.2105    8.8723 Cl        1 <0>        -0.0739
     31 Cl2        -0.2639   -2.1146   -2.9168 Cl        1 <0>        -0.0699
     32 H2          1.2364    2.0813    0.4921 H         1 <0>         0.0731
     33 H3         -0.3760    2.2985   -0.2300 H         1 <0>         0.0712
     34 H4         -0.2179    1.9721    1.5126 H         1 <0>         0.0801
     35 H5         -0.0705    0.5218   -1.8587 H         1 <0>         0.1365
     36 H6         -0.0841   -3.5010   -0.4358 H         1 <0>         0.1365
     37 H7          2.2369   -0.8498    2.9872 H         1 <0>         0.0543
     38 H8          2.1260    0.8314    2.4131 H         1 <0>         0.0616
     39 H9          0.9664    1.4364    4.5582 H         1 <0>         0.1072
     40 H10         3.6572    0.0541    4.9558 H         1 <0>         0.0656
     41 H11         3.4480    1.6728    4.2456 H         1 <0>         0.0770
     42 H12         5.0391    1.1963    6.8254 H         1 <0>         0.0568
     43 H13         4.7344    2.7360    5.9859 H         1 <0>         0.0616
     44 H14         3.1051   -0.2147    7.3225 H         1 <0>         0.3502
     45 H15         1.6424   -1.2827    5.3190 H         1 <0>         0.3617
     46 H16         0.5562   -3.9215    1.8328 H         1 <0>         0.0755
     47 H17         0.8477   -2.5818    2.9678 H         1 <0>         0.0817
     48 H18        -1.5836   -2.2134    3.1817 H         1 <0>         0.0860
     49 H19        -1.8955   -3.5169    2.0104 H         1 <0>         0.0727
     50 H20        -0.7915   -5.1413    3.5241 H         1 <0>         0.0617
     51 H21        -0.4796   -3.8378    4.6954 H         1 <0>         0.0699
     52 H22        -0.4979   -5.7639    5.5063 H         1 <0>         0.1376
     53 H23        -0.7176   -7.3731    7.3558 H         1 <0>         0.1357
     54 H24        -4.9056   -6.5805    7.5554 H         1 <0>         0.1393
     55 H25        -4.6902   -4.9612    5.7142 H         1 <0>         0.1403
@<TRIPOS>BOND
     1    1    2 1
     2    1   32 1
     3    1   33 1
     4    1   34 1
     5    2    7 ar
     6    2    3 ar
     7    3    4 ar
     8    3   35 1
     9    4    5 ar
    10    4   31 1
    11    5    6 ar
    12    5   36 1
    13    6    7 ar
    14    6   20 1
    15    7    8 1
    16    8    9 1
    17    9   10 1
    18    9   37 1
    19    9   38 1
    20   10   11 1
    21   10   19 1
    22   10   39 1
    23   11   12 1
    24   11   40 1
    25   11   41 1
    26   12   13 1
    27   12   14 1
    28   12   18 1
    29   14   15 1
    30   14   42 1
    31   14   43 1
    32   15   16 2
    33   15   17 1
    34   18   44 1
    35   19   45 1
    36   20   21 1
    37   20   46 1
    38   20   47 1
    39   21   22 1
    40   21   48 1
    41   21   49 1
    42   22   23 1
    43   22   50 1
    44   22   51 1
    45   23   24 1
    46   24   29 ar
    47   24   25 ar
    48   25   26 ar
    49   25   52 1
    50   26   27 ar
    51   26   53 1
    52   27   28 ar
    53   27   30 1
    54   28   29 ar
    55   28   54 1
    56   29   55 1
@<TRIPOS>MOLECULE
CHEMBL316712__1
   55    56     0     0     0
SMALL
USER_CHARGES

@<TRIPOS>ATOM
      1 C1          0.1273    1.5311    0.1884 C.3       1 <0>        -0.1164
      2 C2          0.0691    0.0284    0.0911 C.ar      1 <0>        -0.0881
      3 C3         -0.0540   -0.5802   -1.1432 C.ar      1 <0>        -0.1027
      4 C4         -0.1076   -1.9597   -1.2330 C.ar      1 <0>        -0.0356
      5 C5         -0.0379   -2.7327   -0.0873 C.ar      1 <0>        -0.1009
      6 C6          0.0851   -2.1280    1.1484 C.ar      1 <0>        -0.0835
      7 C7          0.1447   -0.7449    1.2401 C.ar      1 <0>         0.1073
      8 O1          0.2720   -0.1482    2.4547 O.3       1 <0>        -0.3156
      9 C8          1.5980    0.1538    2.8934 C.3       1 <0>         0.0351
     10 C9          1.5496    0.7098    4.3180 C.3       1 <0>         0.1164
     11 C10         2.9752    0.9161    4.8336 C.3       1 <0>        -0.1843
     12 C11         2.9293    1.3532    6.2992 C.3       1 <0>         0.1371
     13 H1          2.3001    2.2382    6.3948 H         1 <0>         0.1045
     14 C12         4.3450    1.6797    6.7787 C.3       1 <0>        -0.2185
     15 C13         4.2866    2.2266    8.1817 C.2       1 <0>         0.4903
     16 O2          3.2122    2.3443    8.7458 O.co2     1 <0>        -0.6795
     17 O3          5.3137    2.5513    8.7527 O.co2     1 <0>        -0.7121
     18 O4          2.3888    0.2963    7.0947 O.3       1 <0>        -0.5396
     19 O5          0.8574    1.9600    4.3182 O.3       1 <0>        -0.5436
     20 C14         0.1604   -2.9703    2.3958 C.3       1 <0>        -0.0714
     21 C15        -1.2378   -3.1119    3.0007 C.3       1 <0>        -0.1111
     22 C16        -1.1799   -4.0556    4.2036 C.3       1 <0>         0.0584
     23 O6         -2.4858   -4.1879    4.7685 O.3       1 <0>        -0.3092
     24 C17        -2.6098   -4.9977    5.8531 C.ar      1 <0>         0.1402
     25 C18        -1.4963   -5.6467    6.3662 C.ar      1 <0>        -0.1970
     26 C19        -1.6244   -6.4693    7.4686 C.ar      1 <0>        -0.0676
     27 C20        -2.8623   -6.6465    8.0607 C.ar      1 <0>        -0.0753
     28 C21        -3.9742   -6.0004    7.5501 C.ar      1 <0>        -0.0701
     29 C22        -3.8490   -5.1717    6.4519 C.ar      1 <0>        -0.1414
     30 Cl1        -3.0208   -7.6812    9.4456 Cl        1 <0>        -0.0735
     31 Cl2        -0.2628   -2.7220   -2.7849 Cl        1 <0>        -0.0698
     32 H2          1.1645    1.8596    0.1217 H         1 <0>         0.0715
     33 H3         -0.4462    1.9705   -0.6278 H         1 <0>         0.0704
     34 H4         -0.2943    1.8501    1.1416 H         1 <0>         0.0824
     35 H5         -0.1089    0.0214   -2.0384 H         1 <0>         0.1363
     36 H6         -0.0803   -3.8095   -0.1594 H         1 <0>         0.1367
     37 H7          2.2014   -0.7538    2.8780 H         1 <0>         0.0607
     38 H8          2.0405    0.8957    2.2287 H         1 <0>         0.0565
     39 H9          1.0275    0.0053    4.9655 H         1 <0>         0.1139
     40 H10         3.5305   -0.0181    4.7504 H         1 <0>         0.0708
     41 H11         3.4684    1.6860    4.2402 H         1 <0>         0.0729
     42 H12         4.9506    0.7735    6.7669 H         1 <0>         0.0569
     43 H13         4.7903    2.4229    6.1173 H         1 <0>         0.0624
     44 H14         2.8990   -0.5244    7.0575 H         1 <0>         0.3535
     45 H15         1.2670    2.6364    3.7616 H         1 <0>         0.3679
     46 H16         0.5495   -3.9571    2.1450 H         1 <0>         0.0772
     47 H17         0.8219   -2.4917    3.1180 H         1 <0>         0.0818
     48 H18        -1.5951   -2.1339    3.3230 H         1 <0>         0.0852
     49 H19        -1.9179   -3.5187    2.2523 H         1 <0>         0.0744
     50 H20        -0.8226   -5.0336    3.8813 H         1 <0>         0.0633
     51 H21        -0.4998   -3.6489    4.9520 H         1 <0>         0.0690
     52 H22        -0.5300   -5.5092    5.9040 H         1 <0>         0.1377
     53 H23        -0.7577   -6.9747    7.8684 H         1 <0>         0.1361
     54 H24        -4.9398   -6.1402    8.0133 H         1 <0>         0.1395
     55 H25        -4.7163   -4.6638    6.0565 H         1 <0>         0.1404
@<TRIPOS>BOND
     1    1    2 1
     2    1   32 1
     3    1   33 1
     4    1   34 1
     5    2    7 ar
     6    2    3 ar
     7    3    4 ar
     8    3   35 1
     9    4    5 ar
    10    4   31 1
    11    5    6 ar
    12    5   36 1
    13    6    7 ar
    14    6   20 1
    15    7    8 1
    16    8    9 1
    17    9   10 1
    18    9   37 1
    19    9   38 1
    20   10   11 1
    21   10   19 1
    22   10   39 1
    23   11   12 1
    24   11   40 1
    25   11   41 1
    26   12   13 1
    27   12   14 1
    28   12   18 1
    29   14   15 1
    30   14   42 1
    31   14   43 1
    32   15   16 2
    33   15   17 1
    34   18   44 1
    35   19   45 1
    36   20   21 1
    37   20   46 1
    38   20   47 1
    39   21   22 1
    40   21   48 1
    41   21   49 1
    42   22   23 1
    43   22   50 1
    44   22   51 1
    45   23   24 1
    46   24   29 ar
    47   24   25 ar
    48   25   26 ar
    49   25   52 1
    50   26   27 ar
    51   26   53 1
    52   27   28 ar
    53   27   30 1
    54   28   29 ar
    55   28   54 1
    56   29   55 1
@<TRIPOS>MOLECULE
CHEMBL168307
   44    47     0     0     0
SMALL
USER_CHARGES

@<TRIPOS>ATOM
      1 C1         -2.1877    0.7358   -0.7426 C.3       1 <0>        -0.1164
      2 C2         -1.5613   -0.6108   -0.4868 C.ar      1 <0>        -0.0717
      3 C3         -0.9555   -1.2958   -1.5270 C.ar      1 <0>        -0.1174
      4 C4         -0.3780   -2.5300   -1.3060 C.ar      1 <0>        -0.0476
      5 C5         -0.4039   -3.0901   -0.0324 C.ar      1 <0>        -0.0746
      6 C6         -1.0174   -2.3976    1.0238 C.ar      1 <0>        -0.0394
      7 C7         -1.5905   -1.1495    0.7830 C.ar      1 <0>        -0.1009
      8 C8         -0.9035   -3.2103    2.2546 C.ar      1 <0>        -0.0477
      9 C9         -1.3383   -2.9869    3.5604 C.ar      1 <0>        -0.0936
     10 C10        -1.0961   -3.9292    4.5386 C.ar      1 <0>        -0.1111
     11 C11        -0.4221   -5.1003    4.2346 C.ar      1 <0>        -0.1105
     12 C12         0.0158   -5.3386    2.9473 C.ar      1 <0>        -0.1002
     13 C13        -0.2204   -4.3984    1.9490 C.ar      1 <0>        -0.0734
     14 C14         0.1179   -4.3679    0.5067 C.2       1 <0>        -0.0149
     15 C15         0.7716   -5.3160   -0.1799 C.2       1 <0>        -0.1127
     16 C16         0.9579   -6.6864    0.4185 C.3       1 <0>         0.1271
     17 C17         2.4428   -6.9194    0.7098 C.3       1 <0>        -0.1529
     18 C18         2.6334   -8.3288    1.2794 C.3       1 <0>         0.1053
     19 H1          3.6913   -8.5031    1.4762 H         1 <0>         0.0838
     20 C19         2.1262   -9.3509    0.2541 C.3       1 <0>        -0.2044
     21 C20         0.7216   -8.9603   -0.1508 C.2       1 <0>         0.4959
     22 O1         -0.1722   -9.7733   -0.1568 O.2       1 <0>        -0.4487
     23 O2          0.4961   -7.6783   -0.5053 O.3       1 <0>        -0.3652
     24 O3          1.8928   -8.4583    2.4946 O.3       1 <0>        -0.5649
     25 C21         0.2791   -3.2701   -2.4425 C.3       1 <0>        -0.1259
     26 H2         -1.4437    1.5176   -0.5896 H         1 <0>         0.0736
     27 H3         -2.5530    0.7776   -1.7687 H         1 <0>         0.0695
     28 H4         -3.0194    0.8862   -0.0544 H         1 <0>         0.0686
     29 H5         -0.9351   -0.8623   -2.5160 H         1 <0>         0.1294
     30 H6         -2.0611   -0.6066    1.5893 H         1 <0>         0.1255
     31 H7         -1.8643   -2.0762    3.8061 H         1 <0>         0.1261
     32 H8         -1.4342   -3.7521    5.5489 H         1 <0>         0.1295
     33 H9         -0.2379   -5.8306    5.0087 H         1 <0>         0.1304
     34 H10         0.5412   -6.2533    2.7154 H         1 <0>         0.1395
     35 H11         1.1647   -5.0975   -1.1618 H         1 <0>         0.1423
     36 H12         0.3889   -6.7593    1.3453 H         1 <0>         0.1056
     37 H13         3.0144   -6.8197   -0.2129 H         1 <0>         0.1005
     38 H14         2.7909   -6.1839    1.4350 H         1 <0>         0.1012
     39 H15         2.7756   -9.3465   -0.6213 H         1 <0>         0.1202
     40 H16         2.1169  -10.3454    0.7003 H         1 <0>         0.1102
     41 H17         1.9684   -9.3279    2.9106 H         1 <0>         0.3884
     42 H18         1.3520   -3.0788   -2.4286 H         1 <0>         0.0752
     43 H19         0.0992   -4.3394   -2.3320 H         1 <0>         0.0748
     44 H20        -0.1388   -2.9273   -3.3891 H         1 <0>         0.0716
@<TRIPOS>BOND
     1    1    2 1
     2    1   26 1
     3    1   27 1
     4    1   28 1
     5    2    7 ar
     6    2    3 ar
     7    3    4 ar
     8    3   29 1
     9    4    5 ar
    10    4   25 1
    11    5   14 1
    12    5    6 ar
    13    6    7 ar
    14    6    8 1
    15    7   30 1
    16    8   13 ar
    17    8    9 ar
    18    9   10 ar
    19    9   31 1
    20   10   11 ar
    21   10   32 1
    22   11   12 ar
    23   11   33 1
    24   12   13 ar
    25   12   34 1
    26   13   14 1
    27   14   15 2
    28   15   16 1
    29   15   35 1
    30   16   23 1
    31   16   17 1
    32   16   36 1
    33   17   18 1
    34   17   37 1
    35   17   38 1
    36   18   19 1
    37   18   20 1
    38   18   24 1
    39   20   21 1
    40   20   39 1
    41   20   40 1
    42   21   22 2
    43   21   23 1
    44   24   41 1
    45   25   42 1
    46   25   43 1
    47   25   44 1
@<TRIPOS>MOLECULE
CHEMBL168307__1
   44    47     0     0     0
SMALL
USER_CHARGES

@<TRIPOS>ATOM
      1 C1          0.6124    1.7192   -0.1098 C.3       1 <0>        -0.1167
      2 C2          0.6440    0.2126   -0.1204 C.ar      1 <0>        -0.0713
      3 C3          0.6618   -0.4661   -1.3275 C.ar      1 <0>        -0.1162
      4 C4          0.6908   -1.8461   -1.3510 C.ar      1 <0>        -0.0477
      5 C5          0.7022   -2.5602   -0.1567 C.ar      1 <0>        -0.0731
      6 C6          0.6842   -1.8744    1.0684 C.ar      1 <0>        -0.0410
      7 C7          0.6606   -0.4804    1.0726 C.ar      1 <0>        -0.1001
      8 C8          0.7016   -2.8645    2.1675 C.ar      1 <0>        -0.0449
      9 C9          0.6943   -2.7155    3.5538 C.ar      1 <0>        -0.0909
     10 C10         0.7152   -3.8297    4.3671 C.ar      1 <0>        -0.1100
     11 C11         0.7435   -5.1006    3.8174 C.ar      1 <0>        -0.1111
     12 C12         0.7511   -5.2674    2.4471 C.ar      1 <0>        -0.1041
     13 C13         0.7303   -4.1540    1.6126 C.ar      1 <0>        -0.0708
     14 C14         0.7317   -4.0122    0.1376 C.2       1 <0>        -0.0194
     15 C15         0.7553   -5.0080   -0.7598 C.2       1 <0>        -0.1070
     16 C16         0.9771   -6.4274   -0.3047 C.3       1 <0>         0.1311
     17 C17        -0.3675   -7.1555   -0.2278 C.3       1 <0>        -0.1549
     18 C18        -0.1341   -8.6094    0.1951 C.3       1 <0>         0.1098
     19 H1          0.3425   -8.6326    1.1751 H         1 <0>         0.0682
     20 C19         0.7782   -9.2856   -0.8362 C.3       1 <0>        -0.2047
     21 C20         2.0061   -8.4214   -1.0228 C.2       1 <0>         0.4921
     22 O1          3.1149   -8.8993   -0.9794 O.2       1 <0>        -0.4434
     23 O2          1.8272   -7.1018   -1.2391 O.3       1 <0>        -0.3625
     24 O3         -1.3852   -9.2973    0.2549 O.3       1 <0>        -0.5529
     25 C21         0.7095   -2.5782   -2.6681 C.3       1 <0>        -0.1251
     26 H2          1.6322    2.1040   -0.1091 H         1 <0>         0.0739
     27 H3          0.0893    2.0779   -0.9963 H         1 <0>         0.0697
     28 H4          0.0928    2.0655    0.7836 H         1 <0>         0.0687
     29 H5          0.6526    0.0870   -2.2551 H         1 <0>         0.1299
     30 H6          0.6510    0.0569    2.0094 H         1 <0>         0.1258
     31 H7          0.6727   -1.7281    3.9908 H         1 <0>         0.1274
     32 H8          0.7098   -3.7100    5.4405 H         1 <0>         0.1306
     33 H9          0.7600   -5.9655    4.4640 H         1 <0>         0.1307
     34 H10         0.7735   -6.2605    2.0233 H         1 <0>         0.1260
     35 H11         0.6153   -4.7929   -1.8089 H         1 <0>         0.1477
     36 H12         1.4471   -6.4250    0.6788 H         1 <0>         0.0972
     37 H13        -1.0069   -6.6621    0.5041 H         1 <0>         0.1025
     38 H14        -0.8492   -7.1339   -1.2053 H         1 <0>         0.0969
     39 H15         1.0737  -10.2708   -0.4754 H         1 <0>         0.1101
     40 H16         0.2506   -9.3841   -1.7849 H         1 <0>         0.1204
     41 H17        -1.3118  -10.2252    0.5170 H         1 <0>         0.3866
     42 H18         1.7362   -2.8403   -2.9235 H         1 <0>         0.0778
     43 H19         0.1120   -3.4862   -2.5877 H         1 <0>         0.0719
     44 H20         0.2939   -1.9375   -3.4459 H         1 <0>         0.0723
@<TRIPOS>BOND
     1    1    2 1
     2    1   26 1
     3    1   27 1
     4    1   28 1
     5    2    7 ar
     6    2    3 ar
     7    3    4 ar
     8    3   29 1
     9    4    5 ar
    10    4   25 1
    11    5   14 1
    12    5    6 ar
    13    6    7 ar
    14    6    8 1
    15    7   30 1
    16    8   13 ar
    17    8    9 ar
    18    9   10 ar
    19    9   31 1
    20   10   11 ar
    21   10   32 1
    22   11   12 ar
    23   11   33 1
    24   12   13 ar
    25   12   34 1
    26   13   14 1
    27   14   15 2
    28   15   16 1
    29   15   35 1
    30   16   23 1
    31   16   17 1
    32   16   36 1
    33   17   18 1
    34   17   37 1
    35   17   38 1
    36   18   19 1
    37   18   20 1
    38   18   24 1
    39   20   21 1
    40   20   39 1
    41   20   40 1
    42   21   22 2
    43   21   23 1
    44   24   41 1
    45   25   42 1
    46   25   43 1
    47   25   44 1
@<TRIPOS>MOLECULE
CHEMBL312626
   64    67     0     0     0
SMALL
USER_CHARGES

@<TRIPOS>ATOM
      1 C1          1.0600    0.6437   -0.5780 C.3       1 <0>        -0.1427
      2 C2          0.8521   -0.8348   -0.2437 C.3       1 <0>        -0.0602
      3 H1          1.4603   -1.4519   -0.9051 H         1 <0>         0.0805
      4 C3         -0.6294   -1.2015   -0.4066 C.3       1 <0>        -0.1324
      5 C4         -0.7948   -2.6866   -0.0907 C.3       1 <0>         0.0922
      6 H2         -0.2088   -3.2681   -0.8025 H         1 <0>         0.0611
      7 C5         -0.3380   -3.0196    1.3100 C.3       1 <0>        -0.0422
      8 H3          0.1412   -3.9981    1.2769 H         1 <0>         0.0814
      9 C6         -1.5121   -3.1160    2.2869 C.3       1 <0>        -0.0578
     10 H4         -1.9348   -2.1245    2.4495 H         1 <0>         0.0695
     11 C7         -1.0016   -3.6799    3.6139 C.3       1 <0>        -0.0619
     12 H5         -1.7887   -3.5942    4.3630 H         1 <0>         0.0792
     13 C8          0.2134   -2.9469    4.0953 C.2       1 <0>        -0.1372
     14 C9          0.9914   -2.2122    3.3195 C.2       1 <0>        -0.1272
     15 C10         0.6503   -2.0519    1.8904 C.2       1 <0>        -0.0845
     16 C11         1.2353   -1.0927    1.1906 C.2       1 <0>        -0.1441
     17 C12        -0.6499   -5.1570    3.4263 C.3       1 <0>        -0.1543
     18 C13        -2.5844   -4.0428    1.7105 C.3       1 <0>        -0.1079
     19 C14        -3.5002   -4.5257    2.8370 C.3       1 <0>        -0.1347
     20 C15        -4.5725   -5.4524    2.2606 C.3       1 <0>         0.1122
     21 C16        -5.5598   -5.8405    3.3645 C.3       1 <0>        -0.1549
     22 C17        -6.6079   -6.8011    2.7937 C.3       1 <0>         0.1046
     23 H6         -7.3053   -7.0898    3.5800 H         1 <0>         0.0765
     24 C18        -5.8960   -8.0485    2.2548 C.3       1 <0>        -0.2078
     25 C19        -4.7960   -7.5998    1.3177 C.2       1 <0>         0.4966
     26 O1         -4.6752   -8.0915    0.2207 O.2       1 <0>        -0.4538
     27 O2         -3.9538   -6.6353    1.7425 O.3       1 <0>        -0.3632
     28 O3         -7.3200   -6.1583    1.7345 O.3       1 <0>        -0.5584
     29 O4         -2.1729   -3.0399   -0.2250 O.3       1 <0>        -0.3453
     30 C20        -2.5366   -3.4731   -1.5373 C.3       1 <0>         0.0880
     31 C21        -4.0033   -3.8182   -1.5638 C.ar      1 <0>        -0.1014
     32 C22        -4.4157   -5.1045   -1.2697 C.ar      1 <0>        -0.0635
     33 C23        -5.7605   -5.4220   -1.2933 C.ar      1 <0>        -0.1463
     34 C24        -6.6950   -4.4512   -1.6117 C.ar      1 <0>         0.1080
     35 C25        -6.2808   -3.1633   -1.9061 C.ar      1 <0>        -0.1596
     36 C26        -4.9359   -2.8468   -1.8768 C.ar      1 <0>        -0.0723
     37 F1         -8.0099   -4.7606   -1.6355 F         1 <0>        -0.1397
     38 H7          2.1108    0.9017   -0.4465 H         1 <0>         0.0572
     39 H8          0.7675    0.8271   -1.6119 H         1 <0>         0.0569
     40 H9          0.4497    1.2557    0.0862 H         1 <0>         0.0567
     41 H10        -1.2321   -0.6101    0.2826 H         1 <0>         0.0744
     42 H11        -0.9454   -1.0068   -1.4315 H         1 <0>         0.0673
     43 H12         0.4692   -3.0234    5.1418 H         1 <0>         0.1042
     44 H13         1.8595   -1.7202    3.7328 H         1 <0>         0.1167
     45 H14         1.9840   -0.4722    1.6607 H         1 <0>         0.1120
     46 H15         0.1241   -5.2524    2.6648 H         1 <0>         0.0548
     47 H16        -0.2850   -5.5661    4.3685 H         1 <0>         0.0510
     48 H17        -1.5382   -5.7049    3.1121 H         1 <0>         0.0768
     49 H18        -3.1733   -3.5009    0.9705 H         1 <0>         0.1154
     50 H19        -2.1069   -4.9008    1.2374 H         1 <0>         0.0663
     51 H20        -2.9113   -5.0675    3.5770 H         1 <0>         0.0839
     52 H21        -3.9777   -3.6676    3.3101 H         1 <0>         0.0803
     53 H22        -5.1046   -4.9393    1.4596 H         1 <0>         0.0861
     54 H23        -5.0228   -6.3293    4.1774 H         1 <0>         0.0932
     55 H24        -6.0542   -4.9451    3.7415 H         1 <0>         0.0956
     56 H25        -5.4661   -8.6126    3.0826 H         1 <0>         0.1161
     57 H26        -6.6074   -8.6728    1.7142 H         1 <0>         0.1058
     58 H27        -8.0008   -6.7106    1.3265 H         1 <0>         0.3839
     59 H28        -2.3384   -2.6741   -2.2516 H         1 <0>         0.0580
     60 H29        -1.9515   -4.3530   -1.8046 H         1 <0>         0.0599
     61 H30        -3.6866   -5.8617   -1.0217 H         1 <0>         0.1339
     62 H31        -6.0824   -6.4271   -1.0638 H         1 <0>         0.1318
     63 H32        -7.0088   -2.4053   -2.1549 H         1 <0>         0.1342
     64 H33        -4.6129   -1.8411   -2.1020 H         1 <0>         0.1312
@<TRIPOS>BOND
     1    1    2 1
     2    1   38 1
     3    1   39 1
     4    1   40 1
     5    2    3 1
     6    2   16 1
     7    2    4 1
     8    4    5 1
     9    4   41 1
    10    4   42 1
    11    5    6 1
    12    5    7 1
    13    5   29 1
    14    7    8 1
    15    7   15 1
    16    7    9 1
    17    9   10 1
    18    9   11 1
    19    9   18 1
    20   11   12 1
    21   11   13 1
    22   11   17 1
    23   13   14 2
    24   13   43 1
    25   14   15 1
    26   14   44 1
    27   15   16 2
    28   16   45 1
    29   17   46 1
    30   17   47 1
    31   17   48 1
    32   18   19 1
    33   18   49 1
    34   18   50 1
    35   19   20 1
    36   19   51 1
    37   19   52 1
    38   20   27 1
    39   20   21 1
    40   20   53 1
    41   21   22 1
    42   21   54 1
    43   21   55 1
    44   22   23 1
    45   22   24 1
    46   22   28 1
    47   24   25 1
    48   24   56 1
    49   24   57 1
    50   25   26 2
    51   25   27 1
    52   28   58 1
    53   29   30 1
    54   30   31 1
    55   30   59 1
    56   30   60 1
    57   31   36 ar
    58   31   32 ar
    59   32   33 ar
    60   32   61 1
    61   33   34 ar
    62   33   62 1
    63   34   35 ar
    64   34   37 1
    65   35   36 ar
    66   35   63 1
    67   36   64 1
@<TRIPOS>MOLECULE
CHEMBL312626__1
   64    67     0     0     0
SMALL
USER_CHARGES

@<TRIPOS>ATOM
      1 C1          2.8261   -0.8486   -0.9792 C.3       1 <0>        -0.1432
      2 C2          1.7945   -1.4820   -0.0436 C.3       1 <0>        -0.0590
      3 H1          2.1451   -2.4607    0.2841 H         1 <0>         0.0806
      4 C3          0.4516   -1.6279   -0.7725 C.3       1 <0>        -0.1365
      5 C4         -0.5441   -2.2855    0.1807 C.3       1 <0>         0.0931
      6 H2         -0.1790   -3.2777    0.4459 H         1 <0>         0.0618
      7 C5         -0.7340   -1.4781    1.4431 C.3       1 <0>        -0.0418
      8 H3         -0.8490   -2.1798    2.2693 H         1 <0>         0.0849
      9 C6         -2.0008   -0.6211    1.3889 C.3       1 <0>        -0.0580
     10 H4         -1.8691    0.1804    0.6619 H         1 <0>         0.0715
     11 C7         -2.2477   -0.0217    2.7742 C.3       1 <0>        -0.0603
     12 H5         -3.0443    0.7189    2.7044 H         1 <0>         0.0780
     13 C8         -1.0163    0.6347    3.3201 C.2       1 <0>        -0.1334
     14 C9          0.2086    0.3853    2.8909 C.2       1 <0>        -0.1310
     15 C10         0.4096   -0.5676    1.7793 C.2       1 <0>        -0.0835
     16 C11         1.5751   -0.5917    1.1521 C.2       1 <0>        -0.1460
     17 C12        -2.6834   -1.1347    3.7293 C.3       1 <0>        -0.1714
     18 C13        -3.1921   -1.4913    0.9830 C.3       1 <0>        -0.1075
     19 C14        -3.0592   -2.8715    1.6297 C.3       1 <0>        -0.1375
     20 C15        -4.4417   -3.5171    1.7425 C.3       1 <0>         0.1084
     21 C16        -4.2926   -4.9646    2.2183 C.3       1 <0>        -0.1535
     22 C17        -5.6807   -5.5948    2.3699 C.3       1 <0>         0.1091
     23 H6         -6.1933   -5.5849    1.4080 H         1 <0>         0.0658
     24 C18        -6.4865   -4.7804    3.3900 C.3       1 <0>        -0.2054
     25 C19        -6.4365   -3.3245    2.9811 C.2       1 <0>         0.4907
     26 O1         -7.4446   -2.6612    2.9199 O.2       1 <0>        -0.4492
     27 O2         -5.2340   -2.7883    2.6867 O.3       1 <0>        -0.3627
     28 O3         -5.5475   -6.9421    2.8273 O.3       1 <0>        -0.5559
     29 O4         -1.8044   -2.4155   -0.4803 O.3       1 <0>        -0.3430
     30 C20        -1.8880   -3.5417   -1.3559 C.3       1 <0>         0.0813
     31 C21        -3.2814   -3.6354   -1.9221 C.ar      1 <0>        -0.0960
     32 C22        -4.0127   -4.7985   -1.7684 C.ar      1 <0>        -0.0822
     33 C23        -5.2908   -4.8854   -2.2868 C.ar      1 <0>        -0.1560
     34 C24        -5.8388   -3.8070   -2.9605 C.ar      1 <0>         0.1023
     35 C25        -5.1055   -2.6426   -3.1138 C.ar      1 <0>        -0.1536
     36 C26        -3.8296   -2.5561   -2.5899 C.ar      1 <0>        -0.0660
     37 F1         -7.0880   -3.8909   -3.4681 F         1 <0>        -0.1385
     38 H7          3.7731   -0.7341   -0.4518 H         1 <0>         0.0575
     39 H8          2.9698   -1.4896   -1.8490 H         1 <0>         0.0568
     40 H9          2.4703    0.1294   -1.3035 H         1 <0>         0.0568
     41 H10         0.0844   -0.6445   -1.0660 H         1 <0>         0.0755
     42 H11         0.5798   -2.2516   -1.6572 H         1 <0>         0.0680
     43 H12        -1.1374    1.3571    4.1138 H         1 <0>         0.1042
     44 H13         1.0528    0.8880    3.3394 H         1 <0>         0.1168
     45 H14         2.3743    0.0514    1.4899 H         1 <0>         0.1119
     46 H15        -1.8187   -1.7407    3.9997 H         1 <0>         0.0516
     47 H16        -3.1138   -0.6940    4.6286 H         1 <0>         0.0493
     48 H17        -3.4283   -1.7624    3.2400 H         1 <0>         0.1018
     49 H18        -4.1165   -1.0207    1.3178 H         1 <0>         0.0589
     50 H19        -3.2110   -1.5984   -0.1015 H         1 <0>         0.1088
     51 H20        -2.4138   -3.4998    1.0158 H         1 <0>         0.0944
     52 H21        -2.6249   -2.7666    2.6239 H         1 <0>         0.0961
     53 H22        -4.9309   -3.5021    0.7686 H         1 <0>         0.0771
     54 H23        -3.7143   -5.5299    1.4875 H         1 <0>         0.0949
     55 H24        -3.7791   -4.9804    3.1797 H         1 <0>         0.0893
     56 H25        -7.5209   -5.1240    3.3999 H         1 <0>         0.1056
     57 H26        -6.0500   -4.8987    4.3818 H         1 <0>         0.1171
     58 H27        -6.3896   -7.4025    2.9454 H         1 <0>         0.3847
     59 H28        -1.1724   -3.4232   -2.1695 H         1 <0>         0.0647
     60 H29        -1.6595   -4.4514   -0.8006 H         1 <0>         0.0607
     61 H30        -3.5848   -5.6396   -1.2433 H         1 <0>         0.1326
     62 H31        -5.8617   -5.7942   -2.1669 H         1 <0>         0.1358
     63 H32        -5.5319   -1.8009   -3.6393 H         1 <0>         0.1366
     64 H33        -3.2591   -1.6464   -2.7056 H         1 <0>         0.1366
@<TRIPOS>BOND
     1    1    2 1
     2    1   38 1
     3    1   39 1
     4    1   40 1
     5    2    3 1
     6    2   16 1
     7    2    4 1
     8    4    5 1
     9    4   41 1
    10    4   42 1
    11    5    6 1
    12    5    7 1
    13    5   29 1
    14    7    8 1
    15    7   15 1
    16    7    9 1
    17    9   10 1
    18    9   11 1
    19    9   18 1
    20   11   12 1
    21   11   13 1
    22   11   17 1
    23   13   14 2
    24   13   43 1
    25   14   15 1
    26   14   44 1
    27   15   16 2
    28   16   45 1
    29   17   46 1
    30   17   47 1
    31   17   48 1
    32   18   19 1
    33   18   49 1
    34   18   50 1
    35   19   20 1
    36   19   51 1
    37   19   52 1
    38   20   27 1
    39   20   21 1
    40   20   53 1
    41   21   22 1
    42   21   54 1
    43   21   55 1
    44   22   23 1
    45   22   24 1
    46   22   28 1
    47   24   25 1
    48   24   56 1
    49   24   57 1
    50   25   26 2
    51   25   27 1
    52   28   58 1
    53   29   30 1
    54   30   31 1
    55   30   59 1
    56   30   60 1
    57   31   36 ar
    58   31   32 ar
    59   32   33 ar
    60   32   61 1
    61   33   34 ar
    62   33   62 1
    63   34   35 ar
    64   34   37 1
    65   35   36 ar
    66   35   63 1
    67   36   64 1
@<TRIPOS>MOLECULE
CHEMBL121309
   58    60     0     0     0
SMALL
USER_CHARGES

@<TRIPOS>ATOM
      1 C1         -0.0187    1.5258    0.0104 C.3       1 <0>        -0.1394
      2 C2          0.0021   -0.0041    0.0020 C.3       1 <0>        -0.0090
      3 C3          0.7421   -0.5109    1.2415 C.3       1 <0>        -0.1394
      4 C4         -1.4117   -0.5257    0.0127 C.2       1 <0>         0.0368
      5 C5         -1.9782   -1.3212   -0.9422 C.2       1 <0>         0.0286
      6 N1         -3.2761   -1.5592   -0.5385 N.pl3     1 <0>        -0.4061
      7 C6         -3.4488   -0.8993    0.6462 C.2       1 <0>         0.2482
      8 N2         -2.3221   -0.2945    0.9586 N.2       1 <0>        -0.4560
      9 C7         -4.6911   -0.8740    1.4456 C.ar      1 <0>        -0.0119
     10 C8         -5.8974   -1.2921    0.8804 C.ar      1 <0>        -0.1156
     11 C9         -7.0535   -1.2658    1.6324 C.ar      1 <0>        -0.1167
     12 C10        -7.0196   -0.8265    2.9440 C.ar      1 <0>        -0.1116
     13 C11        -5.8277   -0.4103    3.5103 C.ar      1 <0>        -0.1196
     14 C12        -4.6630   -0.4373    2.7715 C.ar      1 <0>        -0.0782
     15 C13        -4.2331   -2.3293   -1.2132 C.ar      1 <0>         0.1036
     16 C14        -4.6969   -1.9269   -2.4585 C.ar      1 <0>        -0.0726
     17 C15        -5.6400   -2.6871   -3.1218 C.ar      1 <0>        -0.1384
     18 C16        -6.1235   -3.8497   -2.5454 C.ar      1 <0>         0.1154
     19 C17        -5.6622   -4.2527   -1.3034 C.ar      1 <0>        -0.1405
     20 C18        -4.7146   -3.4985   -0.6397 C.ar      1 <0>        -0.0765
     21 F1         -7.0468   -4.5916   -3.1954 F         1 <0>        -0.1303
     22 C19        -1.3311   -1.8258   -2.1627 C.2       1 <0>        -0.0998
     23 C20        -1.3963   -3.1197   -2.4637 C.2       1 <0>        -0.1526
     24 C21        -0.7332   -3.6367   -3.7143 C.3       1 <0>         0.1430
     25 H1         -1.4929   -4.0124   -4.3997 H         1 <0>         0.1094
     26 C22         0.2299   -4.7686   -3.3504 C.3       1 <0>        -0.1808
     27 C23         0.8090   -5.3765   -4.6294 C.3       1 <0>         0.1378
     28 H2         -0.0047   -5.6914   -5.2828 H         1 <0>         0.0932
     29 C24         1.6740   -6.5870   -4.2725 C.3       1 <0>        -0.2192
     30 C25         2.1443   -7.2587   -5.5368 C.2       1 <0>         0.4906
     31 O1          1.8179   -6.8107   -6.6228 O.co2     1 <0>        -0.6811
     32 O2          2.8512   -8.2500   -5.4738 O.co2     1 <0>        -0.7126
     33 O3          1.6087   -4.4009   -5.3008 O.3       1 <0>        -0.5278
     34 O4         -0.0078   -2.5773   -4.3416 O.3       1 <0>        -0.5371
     35 H3          1.0039    1.9031    0.0027 H         1 <0>         0.0575
     36 H4         -0.5459    1.8868   -0.8726 H         1 <0>         0.0516
     37 H5         -0.5289    1.8773    0.9072 H         1 <0>         0.0604
     38 H6          0.5123   -0.3556   -0.8948 H         1 <0>         0.0827
     39 H7          0.7568   -1.6008    1.2356 H         1 <0>         0.0515
     40 H8          1.7647   -0.1336    1.2338 H         1 <0>         0.0576
     41 H9          0.2319   -0.1594    2.1383 H         1 <0>         0.0602
     42 H10        -5.9253   -1.6349   -0.1434 H         1 <0>         0.1261
     43 H11        -7.9874   -1.5886    1.1963 H         1 <0>         0.1251
     44 H12        -7.9277   -0.8079    3.5284 H         1 <0>         0.1242
     45 H13        -5.8082   -0.0682    4.5344 H         1 <0>         0.1278
     46 H14        -3.7324   -0.1171    3.2162 H         1 <0>         0.1352
     47 H15        -4.3206   -1.0199   -2.9080 H         1 <0>         0.1414
     48 H16        -6.0010   -2.3744   -4.0905 H         1 <0>         0.1486
     49 H17        -6.0405   -5.1598   -0.8555 H         1 <0>         0.1480
     50 H18        -4.3515   -3.8157    0.3267 H         1 <0>         0.1396
     51 H19        -0.8030   -1.1456   -2.8146 H         1 <0>         0.1427
     52 H20        -1.9244   -3.7999   -1.8119 H         1 <0>         0.1097
     53 H21         1.0396   -4.3735   -2.7369 H         1 <0>         0.0657
     54 H22        -0.3064   -5.5369   -2.7934 H         1 <0>         0.0743
     55 H23         2.5368   -6.2587   -3.6929 H         1 <0>         0.0569
     56 H24         1.0873   -7.2917   -3.6832 H         1 <0>         0.0608
     57 H25         2.3535   -4.0750   -4.7772 H         1 <0>         0.3507
     58 H26         0.6865   -2.1943   -3.7880 H         1 <0>         0.3675
@<TRIPOS>BOND
     1    1    2 1
     2    1   35 1
     3    1   36 1
     4    1   37 1
     5    2    3 1
     6    2    4 1
     7    2   38 1
     8    3   39 1
     9    3   40 1
    10    3   41 1
    11    4    8 1
    12    4    5 2
    13    5    6 1
    14    5   22 1
    15    6    7 1
    16    6   15 1
    17    7    8 2
    18    7    9 1
    19    9   14 ar
    20    9   10 ar
    21   10   11 ar
    22   10   42 1
    23   11   12 ar
    24   11   43 1
    25   12   13 ar
    26   12   44 1
    27   13   14 ar
    28   13   45 1
    29   14   46 1
    30   15   20 ar
    31   15   16 ar
    32   16   17 ar
    33   16   47 1
    34   17   18 ar
    35   17   48 1
    36   18   19 ar
    37   18   21 1
    38   19   20 ar
    39   19   49 1
    40   20   50 1
    41   22   23 2
    42   22   51 1
    43   23   24 1
    44   23   52 1
    45   24   25 1
    46   24   26 1
    47   24   34 1
    48   26   27 1
    49   26   53 1
    50   26   54 1
    51   27   28 1
    52   27   29 1
    53   27   33 1
    54   29   30 1
    55   29   55 1
    56   29   56 1
    57   30   31 2
    58   30   32 1
    59   33   57 1
    60   34   58 1
@<TRIPOS>MOLECULE
CHEMBL121309__1
   59    61     0     0     0
SMALL
USER_CHARGES

@<TRIPOS>ATOM
      1 C1         -0.0187    1.5258    0.0104 C.3       1 <0>        -0.1562
      2 C2          0.0021   -0.0041    0.0020 C.3       1 <0>        -0.0306
      3 C3          0.7421   -0.5109    1.2415 C.3       1 <0>        -0.1561
      4 C4         -1.4117   -0.5257    0.0127 C.2       1 <0>         0.0490
      5 C5         -1.9782   -1.3212   -0.9422 C.2       1 <0>         0.1155
      6 N1         -3.2761   -1.5592   -0.5385 N.pl3     1 <0>        -0.3496
      7 C6         -3.4488   -0.8993    0.6462 C.cat     1 <0>         0.3609
      8 N2         -2.3221   -0.2945    0.9586 N.pl3     1 <0>        -0.4628
      9 C7         -4.6911   -0.8740    1.4456 C.ar      1 <0>        -0.0907
     10 C8         -5.9342   -0.8804    0.8101 C.ar      1 <0>        -0.0669
     11 C9         -7.0902   -0.8566    1.5625 C.ar      1 <0>        -0.1097
     12 C10        -7.0196   -0.8264    2.9440 C.ar      1 <0>        -0.0694
     13 C11        -5.7909   -0.8195    3.5803 C.ar      1 <0>        -0.1101
     14 C12        -4.6272   -0.8494    2.8401 C.ar      1 <0>        -0.0771
     15 C13        -4.2331   -2.3293   -1.2132 C.ar      1 <0>         0.0482
     16 C14        -4.6969   -1.9269   -2.4585 C.ar      1 <0>        -0.0529
     17 C15        -5.6400   -2.6871   -3.1218 C.ar      1 <0>        -0.1362
     18 C16        -6.1235   -3.8497   -2.5454 C.ar      1 <0>         0.1482
     19 C17        -5.6622   -4.2527   -1.3034 C.ar      1 <0>        -0.1373
     20 C18        -4.7146   -3.4985   -0.6397 C.ar      1 <0>        -0.0579
     21 F1         -7.0468   -4.5916   -3.1954 F         1 <0>        -0.1160
     22 C19        -1.3311   -1.8258   -2.1627 C.2       1 <0>        -0.1518
     23 C20        -1.3963   -3.1197   -2.4637 C.2       1 <0>        -0.0936
     24 C21        -0.7332   -3.6367   -3.7143 C.3       1 <0>         0.1342
     25 H1         -1.4929   -4.0124   -4.3997 H         1 <0>         0.1225
     26 C22         0.2299   -4.7686   -3.3504 C.3       1 <0>        -0.1822
     27 C23         0.8090   -5.3765   -4.6294 C.3       1 <0>         0.1374
     28 H2         -0.0047   -5.6914   -5.2828 H         1 <0>         0.0959
     29 C24         1.6740   -6.5870   -4.2725 C.3       1 <0>        -0.2199
     30 C25         2.1443   -7.2587   -5.5368 C.2       1 <0>         0.4891
     31 O1          1.8179   -6.8107   -6.6228 O.co2     1 <0>        -0.6800
     32 O2          2.8512   -8.2500   -5.4738 O.co2     1 <0>        -0.7074
     33 O3          1.6087   -4.4009   -5.3008 O.3       1 <0>        -0.5262
     34 O4         -0.0078   -2.5773   -4.3416 O.3       1 <0>        -0.5306
     35 H3          1.0039    1.9031    0.0027 H         1 <0>         0.0843
     36 H4         -0.5459    1.8868   -0.8726 H         1 <0>         0.0679
     37 H5         -0.5289    1.8773    0.9072 H         1 <0>         0.0548
     38 H6          0.5123   -0.3556   -0.8948 H         1 <0>         0.1204
     39 H7          0.2319   -0.1594    2.1383 H         1 <0>         0.0546
     40 H8          0.7568   -1.6008    1.2356 H         1 <0>         0.0677
     41 H9          1.7647   -0.1336    1.2338 H         1 <0>         0.0846
     42 H10        -5.9907   -0.9035   -0.2682 H         1 <0>         0.1325
     43 H11        -8.0524   -0.8611    1.0721 H         1 <0>         0.1429
     44 H12        -7.9277   -0.8079    3.5284 H         1 <0>         0.1417
     45 H13        -5.7429   -0.7956    4.6590 H         1 <0>         0.1439
     46 H14        -3.6689   -0.8491    3.3381 H         1 <0>         0.1326
     47 H15        -4.3206   -1.0199   -2.9080 H         1 <0>         0.1499
     48 H16        -6.0010   -2.3744   -4.0905 H         1 <0>         0.1610
     49 H17        -6.0405   -5.1598   -0.8555 H         1 <0>         0.1592
     50 H18        -4.3515   -3.8157    0.3267 H         1 <0>         0.1454
     51 H19        -0.8030   -1.1456   -2.8145 H         1 <0>         0.1657
     52 H20        -1.9244   -3.7999   -1.8119 H         1 <0>         0.1180
     53 H21         1.0396   -4.3735   -2.7369 H         1 <0>         0.0679
     54 H22        -0.3064   -5.5369   -2.7934 H         1 <0>         0.0777
     55 H23         2.5368   -6.2587   -3.6929 H         1 <0>         0.0575
     56 H24         1.0873   -7.2917   -3.6832 H         1 <0>         0.0612
     57 H25         2.3535   -4.0750   -4.7772 H         1 <0>         0.3515
     58 H26         0.6865   -2.1943   -3.7880 H         1 <0>         0.3690
     59 H27        -2.1771    0.2401    1.7549 H         1 <0>         0.4580
@<TRIPOS>BOND
     1    1    2 1
     2    1   35 1
     3    1   36 1
     4    1   37 1
     5    2    3 1
     6    2    4 1
     7    2   38 1
     8    3   39 1
     9    3   40 1
    10    3   41 1
    11    4    8 1
    12    4    5 2
    13    5    6 1
    14    5   22 1
    15    6    7 1
    16    6   15 1
    17    7    8 2
    18    7    9 1
    19    8   59 1
    20    9   14 ar
    21    9   10 ar
    22   10   11 ar
    23   10   42 1
    24   11   12 ar
    25   11   43 1
    26   12   13 ar
    27   12   44 1
    28   13   14 ar
    29   13   45 1
    30   14   46 1
    31   15   20 ar
    32   15   16 ar
    33   16   17 ar
    34   16   47 1
    35   17   18 ar
    36   17   48 1
    37   18   19 ar
    38   18   21 1
    39   19   20 ar
    40   19   49 1
    41   20   50 1
    42   22   23 2
    43   22   51 1
    44   23   24 1
    45   23   52 1
    46   24   25 1
    47   24   26 1
    48   24   34 1
    49   26   27 1
    50   26   53 1
    51   26   54 1
    52   27   28 1
    53   27   29 1
    54   27   33 1
    55   29   30 1
    56   29   55 1
    57   29   56 1
    58   30   31 2
    59   30   32 1
    60   33   57 1
    61   34   58 1
@<TRIPOS>MOLECULE
CHEMBL157882
   64    67     0     0     0
SMALL
USER_CHARGES

@<TRIPOS>ATOM
      1 C1         -0.0187    1.5258    0.0104 C.3       1 <0>        -0.1411
      2 C2          0.0021   -0.0041    0.0020 C.3       1 <0>        -0.0463
      3 C3          0.7421   -0.5109    1.2415 C.3       1 <0>        -0.1389
      4 C4         -1.4117   -0.5257    0.0127 C.ar      1 <0>         0.1608
      5 C5         -1.8576   -1.3319   -1.0337 C.ar      1 <0>        -0.1035
      6 C6         -3.1839   -1.8095   -1.0036 C.ar      1 <0>         0.0101
      7 C7         -3.9878   -1.4482    0.0798 C.ar      1 <0>        -0.1614
      8 C8         -3.4601   -0.6455    1.0703 C.ar      1 <0>         0.1463
      9 N1         -2.2117   -0.2198    1.0131 N.ar      1 <0>        -0.4726
     10 C9         -4.3228   -0.2524    2.2417 C.3       1 <0>        -0.0366
     11 C10        -5.7661   -0.0620    1.7710 C.3       1 <0>        -0.1140
     12 C11        -6.6420    0.3371    2.9602 C.3       1 <0>        -0.1191
     13 C12        -6.5928   -0.7635    4.0220 C.3       1 <0>        -0.1215
     14 C13        -5.1495   -0.9538    4.4927 C.3       1 <0>        -0.1190
     15 C14        -4.2736   -1.3530    3.3034 C.3       1 <0>        -0.1058
     16 C15        -3.7095   -2.6692   -2.0897 C.ar      1 <0>        -0.0639
     17 C16        -3.5481   -2.2901   -3.4221 C.ar      1 <0>        -0.0610
     18 C17        -4.0392   -3.0938   -4.4298 C.ar      1 <0>        -0.1520
     19 C18        -4.6925   -4.2760   -4.1200 C.ar      1 <0>         0.1077
     20 C19        -4.8554   -4.6569   -2.7976 C.ar      1 <0>        -0.1529
     21 C20        -4.3623   -3.8629   -1.7832 C.ar      1 <0>        -0.0744
     22 F1         -5.1727   -5.0595   -5.1104 F         1 <0>        -0.1367
     23 C21        -0.9585   -1.6784   -2.1521 C.2       1 <0>        -0.0879
     24 C22        -0.8275   -2.9434   -2.5305 C.2       1 <0>        -0.1463
     25 C23         0.0904   -3.2971   -3.6722 C.3       1 <0>         0.1457
     26 C24         1.1027   -4.3475   -3.2076 C.3       1 <0>        -0.1478
     27 C25         2.0599   -4.6742   -4.3583 C.3       1 <0>         0.1041
     28 H1          2.7902   -5.4125   -4.0274 H         1 <0>         0.0816
     29 C26         2.7834   -3.3894   -4.7815 C.3       1 <0>        -0.2046
     30 C27         1.7430   -2.3213   -5.0385 C.2       1 <0>         0.4978
     31 O1          1.7653   -1.6630   -6.0515 O.2       1 <0>        -0.4499
     32 O2          0.7901   -2.1248   -4.1040 O.3       1 <0>        -0.3688
     33 O3          1.3193   -5.1956   -5.4637 O.3       1 <0>        -0.5635
     34 H2          1.0039    1.9031    0.0027 H         1 <0>         0.0604
     35 H3         -0.5459    1.8868   -0.8726 H         1 <0>         0.0522
     36 H4         -0.5289    1.8773    0.9072 H         1 <0>         0.0656
     37 H5          0.5123   -0.3556   -0.8948 H         1 <0>         0.0877
     38 H6          0.7568   -1.6008    1.2356 H         1 <0>         0.0510
     39 H7          1.7647   -0.1336    1.2338 H         1 <0>         0.0599
     40 H8          0.2319   -0.1594    2.1383 H         1 <0>         0.0654
     41 H9         -5.0096   -1.7923    0.1413 H         1 <0>         0.1383
     42 H10        -3.9536    0.6804    2.6679 H         1 <0>         0.0908
     43 H11        -5.8012    0.7220    1.0146 H         1 <0>         0.0647
     44 H12        -6.1353   -0.9948    1.3447 H         1 <0>         0.0663
     45 H13        -6.2728    1.2699    3.3865 H         1 <0>         0.0639
     46 H14        -7.6702    0.4727    2.6249 H         1 <0>         0.0645
     47 H15        -7.2168   -0.4791    4.8692 H         1 <0>         0.0625
     48 H16        -6.9620   -1.6963    3.5957 H         1 <0>         0.0617
     49 H17        -4.7803   -0.0210    4.9189 H         1 <0>         0.0641
     50 H18        -5.1144   -1.7379    5.2491 H         1 <0>         0.0639
     51 H19        -4.6428   -2.2858    2.8772 H         1 <0>         0.0622
     52 H20        -3.2454   -1.4886    3.6388 H         1 <0>         0.0652
     53 H21        -3.0396   -1.3686   -3.6644 H         1 <0>         0.1346
     54 H22        -3.9146   -2.8011   -5.4619 H         1 <0>         0.1388
     55 H23        -5.3656   -5.5789   -2.5610 H         1 <0>         0.1391
     56 H24        -4.4854   -4.1629   -0.7530 H         1 <0>         0.1345
     57 H25        -0.4074   -0.9023   -2.6623 H         1 <0>         0.1369
     58 H26        -1.3786   -3.7195   -2.0203 H         1 <0>         0.1323
     59 H27        -0.4956   -3.6967   -4.4998 H         1 <0>         0.0962
     60 H28         1.6698   -3.9573   -2.3625 H         1 <0>         0.0980
     61 H29         0.5752   -5.2523   -2.9053 H         1 <0>         0.0994
     62 H30         3.4534   -3.0657   -3.9850 H         1 <0>         0.1195
     63 H31         3.3549   -3.5723   -5.6914 H         1 <0>         0.1090
     64 H32         1.8640   -5.4244   -6.2292 H         1 <0>         0.3871
@<TRIPOS>BOND
     1    1    2 1
     2    1   34 1
     3    1   35 1
     4    1   36 1
     5    2    3 1
     6    2    4 1
     7    2   37 1
     8    3   38 1
     9    3   39 1
    10    3   40 1
    11    4    9 ar
    12    4    5 ar
    13    5    6 ar
    14    5   23 1
    15    6    7 ar
    16    6   16 1
    17    7    8 ar
    18    7   41 1
    19    8    9 ar
    20    8   10 1
    21   10   15 1
    22   10   11 1
    23   10   42 1
    24   11   12 1
    25   11   43 1
    26   11   44 1
    27   12   13 1
    28   12   45 1
    29   12   46 1
    30   13   14 1
    31   13   47 1
    32   13   48 1
    33   14   15 1
    34   14   49 1
    35   14   50 1
    36   15   51 1
    37   15   52 1
    38   16   21 ar
    39   16   17 ar
    40   17   18 ar
    41   17   53 1
    42   18   19 ar
    43   18   54 1
    44   19   20 ar
    45   19   22 1
    46   20   21 ar
    47   20   55 1
    48   21   56 1
    49   23   24 2
    50   23   57 1
    51   24   25 1
    52   24   58 1
    53   25   32 1
    54   25   26 1
    55   25   59 1
    56   26   27 1
    57   26   60 1
    58   26   61 1
    59   27   28 1
    60   27   29 1
    61   27   33 1
    62   29   30 1
    63   29   62 1
    64   29   63 1
    65   30   31 2
    66   30   32 1
    67   33   64 1
@<TRIPOS>MOLECULE
CHEMBL157882__1
   64    67     0     0     0
SMALL
USER_CHARGES

@<TRIPOS>ATOM
      1 C1         -0.0187    1.5258    0.0104 C.3       1 <0>        -0.1417
      2 C2          0.0021   -0.0041    0.0020 C.3       1 <0>        -0.0456
      3 C3          0.7421   -0.5109    1.2415 C.3       1 <0>        -0.1403
      4 C4         -1.4117   -0.5257    0.0127 C.ar      1 <0>         0.1629
      5 C5         -1.8576   -1.3319   -1.0337 C.ar      1 <0>        -0.1097
      6 C6         -3.1839   -1.8095   -1.0036 C.ar      1 <0>         0.0186
      7 C7         -3.9878   -1.4482    0.0798 C.ar      1 <0>        -0.1629
      8 C8         -3.4601   -0.6455    1.0703 C.ar      1 <0>         0.1506
      9 N1         -2.2117   -0.2198    1.0131 N.ar      1 <0>        -0.4740
     10 C9         -4.3228   -0.2524    2.2417 C.3       1 <0>        -0.0371
     11 C10        -5.2630   -1.4072    2.5930 C.3       1 <0>        -0.1142
     12 C11        -6.1389   -1.0081    3.7822 C.3       1 <0>        -0.1189
     13 C12        -6.9635    0.2277    3.4163 C.3       1 <0>        -0.1220
     14 C13        -6.0233    1.3825    3.0651 C.3       1 <0>        -0.1188
     15 C14        -5.1474    0.9833    1.8758 C.3       1 <0>        -0.1067
     16 C15        -3.7095   -2.6692   -2.0897 C.ar      1 <0>        -0.0689
     17 C16        -3.5481   -2.2901   -3.4221 C.ar      1 <0>        -0.0572
     18 C17        -4.0392   -3.0938   -4.4298 C.ar      1 <0>        -0.1399
     19 C18        -4.6925   -4.2760   -4.1200 C.ar      1 <0>         0.1094
     20 C19        -4.8554   -4.6569   -2.7976 C.ar      1 <0>        -0.1533
     21 C20        -4.3623   -3.8629   -1.7832 C.ar      1 <0>        -0.0749
     22 F1         -5.1727   -5.0595   -5.1104 F         1 <0>        -0.1374
     23 C21        -0.9585   -1.6784   -2.1521 C.2       1 <0>        -0.0836
     24 C22        -0.8275   -2.9434   -2.5305 C.2       1 <0>        -0.1325
     25 C23         0.0904   -3.2971   -3.6722 C.3       1 <0>         0.1444
     26 C24         1.1731   -4.2602   -3.1780 C.3       1 <0>        -0.1515
     27 C25         2.0793   -4.6501   -4.3502 C.3       1 <0>         0.1099
     28 H1          2.5530   -3.7572   -4.7581 H         1 <0>         0.0682
     29 C26         1.2265   -5.3204   -5.4348 C.3       1 <0>        -0.2055
     30 C27         0.0560   -4.4136   -5.7465 C.2       1 <0>         0.4915
     31 O1         -0.2263   -4.1331   -6.8873 O.2       1 <0>        -0.4458
     32 O2         -0.6633   -3.9274   -4.7139 O.3       1 <0>        -0.3585
     33 O3          3.0834   -5.5601   -3.8968 O.3       1 <0>        -0.5546
     34 H2          1.0039    1.9031    0.0027 H         1 <0>         0.0611
     35 H3         -0.5459    1.8868   -0.8726 H         1 <0>         0.0521
     36 H4         -0.5289    1.8773    0.9072 H         1 <0>         0.0665
     37 H5          0.5123   -0.3556   -0.8948 H         1 <0>         0.0851
     38 H6          0.7568   -1.6008    1.2356 H         1 <0>         0.0522
     39 H7          1.7647   -0.1336    1.2338 H         1 <0>         0.0608
     40 H8          0.2319   -0.1594    2.1383 H         1 <0>         0.0661
     41 H9         -5.0096   -1.7923    0.1413 H         1 <0>         0.1394
     42 H10        -3.6896   -0.0257    3.0994 H         1 <0>         0.0913
     43 H11        -5.8963   -1.6339    1.7352 H         1 <0>         0.0667
     44 H12        -4.6755   -2.2876    2.8536 H         1 <0>         0.0647
     45 H13        -6.8087   -1.8308    4.0325 H         1 <0>         0.0646
     46 H14        -5.5056   -0.7814    4.6400 H         1 <0>         0.0639
     47 H15        -7.5967    0.0010    2.5586 H         1 <0>         0.0620
     48 H16        -7.5875    0.5120    4.2636 H         1 <0>         0.0627
     49 H17        -6.6108    2.2628    2.8044 H         1 <0>         0.0642
     50 H18        -5.3900    1.6092    3.9228 H         1 <0>         0.0641
     51 H19        -4.4776    1.8060    1.6255 H         1 <0>         0.0654
     52 H20        -5.7807    0.7566    1.0180 H         1 <0>         0.0629
     53 H21        -3.0396   -1.3686   -3.6644 H         1 <0>         0.1312
     54 H22        -3.9146   -2.8011   -5.4619 H         1 <0>         0.1376
     55 H23        -5.3656   -5.5789   -2.5610 H         1 <0>         0.1378
     56 H24        -4.4854   -4.1629   -0.7530 H         1 <0>         0.1333
     57 H25        -0.4074   -0.9023   -2.6623 H         1 <0>         0.1294
     58 H26        -1.3786   -3.7195   -2.0203 H         1 <0>         0.1257
     59 H27         0.5572   -2.3909   -4.0580 H         1 <0>         0.0839
     60 H28         1.7676   -3.7734   -2.4050 H         1 <0>         0.1006
     61 H29         0.7044   -5.1546   -2.7676 H         1 <0>         0.0926
     62 H30         1.8253   -5.4694   -6.3333 H         1 <0>         0.1081
     63 H31         0.8606   -6.2814   -5.0730 H         1 <0>         0.1182
     64 H32         3.6937   -5.8492   -4.5890 H         1 <0>         0.3862
@<TRIPOS>BOND
     1    1    2 1
     2    1   34 1
     3    1   35 1
     4    1   36 1
     5    2    3 1
     6    2    4 1
     7    2   37 1
     8    3   38 1
     9    3   39 1
    10    3   40 1
    11    4    9 ar
    12    4    5 ar
    13    5    6 ar
    14    5   23 1
    15    6    7 ar
    16    6   16 1
    17    7    8 ar
    18    7   41 1
    19    8    9 ar
    20    8   10 1
    21   10   15 1
    22   10   11 1
    23   10   42 1
    24   11   12 1
    25   11   43 1
    26   11   44 1
    27   12   13 1
    28   12   45 1
    29   12   46 1
    30   13   14 1
    31   13   47 1
    32   13   48 1
    33   14   15 1
    34   14   49 1
    35   14   50 1
    36   15   51 1
    37   15   52 1
    38   16   21 ar
    39   16   17 ar
    40   17   18 ar
    41   17   53 1
    42   18   19 ar
    43   18   54 1
    44   19   20 ar
    45   19   22 1
    46   20   21 ar
    47   20   55 1
    48   21   56 1
    49   23   24 2
    50   23   57 1
    51   24   25 1
    52   24   58 1
    53   25   32 1
    54   25   26 1
    55   25   59 1
    56   26   27 1
    57   26   60 1
    58   26   61 1
    59   27   28 1
    60   27   29 1
    61   27   33 1
    62   29   30 1
    63   29   62 1
    64   29   63 1
    65   30   31 2
    66   30   32 1
    67   33   64 1
@<TRIPOS>MOLECULE
CHEMBL121014
   68    71     0     0     0
SMALL
USER_CHARGES

@<TRIPOS>ATOM
      1 C1         -0.0167    1.3781    0.0096 C.ar      1 <0>        -0.1281
      2 C2          1.1709    2.0855    0.0021 C.ar      1 <0>        -0.1196
      3 C3          2.3773    1.4107   -0.0130 C.ar      1 <0>        -0.1198
      4 C4          2.3960    0.0285   -0.0201 C.ar      1 <0>        -0.0754
      5 C5          1.2084   -0.6789   -0.0117 C.ar      1 <0>        -0.1148
      6 C6          0.0021   -0.0041    0.0020 C.ar      1 <0>        -0.1177
      7 C7          3.7112   -0.7071   -0.0376 C.3       1 <0>        -0.0796
      8 C8          4.1714   -0.9633    1.3989 C.3       1 <0>        -0.1241
      9 C9          5.5066   -1.7102    1.3812 C.3       1 <0>        -0.1080
     10 C10         5.9667   -1.9663    2.8177 C.3       1 <0>        -0.0054
     11 C11         7.3489   -2.6304    2.8073 C.3       1 <0>        -0.1124
     12 C12         7.7064   -3.1029    4.2183 C.3       1 <0>        -0.1182
     13 C13         6.8439   -4.3155    4.5908 C.3       1 <0>        -0.0400
     14 C14         5.4022   -3.9722    4.3103 C.2       1 <0>        -0.2124
     15 C15         4.9986   -2.9007    3.5038 C.2       1 <0>         0.0952
     16 N1          3.6958   -2.8745    3.4667 N.2       1 <0>        -0.2745
     17 N2          3.2012   -3.9300    4.2465 N.pl3     1 <0>        -0.3291
     18 C16         4.2738   -4.6054    4.7654 C.2       1 <0>         0.1254
     19 C17         4.2248   -5.7858    5.6442 C.2       1 <0>        -0.1195
     20 C18         3.4531   -5.7772    6.7258 C.2       1 <0>        -0.1408
     21 C19         3.4030   -6.9853    7.6253 C.3       1 <0>         0.1412
     22 H1          2.4020   -7.4161    7.5997 H         1 <0>         0.1133
     23 C20         3.7425   -6.5690    9.0578 C.3       1 <0>        -0.1814
     24 C21         3.5706   -7.7685    9.9919 C.3       1 <0>         0.1379
     25 H2          2.5638   -8.1719    9.8836 H         1 <0>         0.0940
     26 C22         3.7886   -7.3232   11.4393 C.3       1 <0>        -0.2194
     27 C23         3.4994   -8.4742   12.3680 C.2       1 <0>         0.4906
     28 O1          3.1511   -9.5510   11.9143 O.co2     1 <0>        -0.6810
     29 O2          3.6136   -8.3287   13.5731 O.co2     1 <0>        -0.7124
     30 O3          4.5262   -8.7759    9.6544 O.3       1 <0>        -0.5277
     31 O4          4.3505   -7.9550    7.1737 O.3       1 <0>        -0.5365
     32 C24         1.8507   -4.2384    4.4574 C.ar      1 <0>         0.1490
     33 C25         1.4516   -5.5623    4.5851 C.ar      1 <0>        -0.0963
     34 C26         0.1202   -5.8641    4.7934 C.ar      1 <0>        -0.1299
     35 C27        -0.8167   -4.8474    4.8749 C.ar      1 <0>         0.0970
     36 C28        -0.4207   -3.5265    4.7474 C.ar      1 <0>        -0.1357
     37 C29         0.9105   -3.2202    4.5447 C.ar      1 <0>        -0.0854
     38 F1         -2.1187   -5.1447    5.0787 F         1 <0>        -0.1347
     39 H3         -0.9591    1.9053    0.0259 H         1 <0>         0.1189
     40 H4          1.1563    3.1654    0.0076 H         1 <0>         0.1194
     41 H5          3.3051    1.9634   -0.0196 H         1 <0>         0.1193
     42 H6          1.2231   -1.7588   -0.0176 H         1 <0>         0.1190
     43 H7         -0.9258   -0.5567    0.0082 H         1 <0>         0.1196
     44 H8          3.5884   -1.6586   -0.5549 H         1 <0>         0.0686
     45 H9          4.4573   -0.1052   -0.5563 H         1 <0>         0.0680
     46 H10         4.2941   -0.0118    1.9163 H         1 <0>         0.0582
     47 H11         3.4252   -1.5652    1.9176 H         1 <0>         0.0942
     48 H12         5.3838   -2.6617    0.8639 H         1 <0>         0.0636
     49 H13         6.2527   -1.1082    0.8625 H         1 <0>         0.0681
     50 H14         6.0155   -1.0231    3.3618 H         1 <0>         0.0892
     51 H15         7.3352   -3.4854    2.1313 H         1 <0>         0.0682
     52 H16         8.0939   -1.9116    2.4662 H         1 <0>         0.0716
     53 H17         8.7593   -3.3829    4.2512 H         1 <0>         0.0692
     54 H18         7.5239   -2.2962    4.9281 H         1 <0>         0.0641
     55 H19         7.1404   -5.1759    3.9909 H         1 <0>         0.0715
     56 H20         6.9683   -4.5440    5.6493 H         1 <0>         0.0721
     57 H21         4.8162   -6.6585    5.4097 H         1 <0>         0.1468
     58 H22         2.8616   -4.9045    6.9603 H         1 <0>         0.1135
     59 H23         4.7745   -6.2207    9.1000 H         1 <0>         0.0658
     60 H24         3.0750   -5.7662    9.3708 H         1 <0>         0.0756
     61 H25         4.8223   -7.0026   11.5690 H         1 <0>         0.0568
     62 H26         3.1195   -6.4940   11.6691 H         1 <0>         0.0612
     63 H27         5.4458   -8.4862    9.7283 H         1 <0>         0.3506
     64 H28         5.2647   -7.6396    7.1701 H         1 <0>         0.3679
     65 H29         2.1819   -6.3554    4.5212 H         1 <0>         0.1440
     66 H30        -0.1906   -6.8936    4.8924 H         1 <0>         0.1472
     67 H31        -1.1529   -2.7351    4.8109 H         1 <0>         0.1434
     68 H32         1.2196   -2.1897    4.4501 H         1 <0>         0.1408
@<TRIPOS>BOND
     1    1    6 ar
     2    1    2 ar
     3    1   39 1
     4    2    3 ar
     5    2   40 1
     6    3    4 ar
     7    3   41 1
     8    4    5 ar
     9    4    7 1
    10    5    6 ar
    11    5   42 1
    12    6   43 1
    13    7    8 1
    14    7   44 1
    15    7   45 1
    16    8    9 1
    17    8   46 1
    18    8   47 1
    19    9   10 1
    20    9   48 1
    21    9   49 1
    22   10   15 1
    23   10   11 1
    24   10   50 1
    25   11   12 1
    26   11   51 1
    27   11   52 1
    28   12   13 1
    29   12   53 1
    30   12   54 1
    31   13   14 1
    32   13   55 1
    33   13   56 1
    34   14   18 2
    35   14   15 1
    36   15   16 2
    37   16   17 1
    38   17   18 1
    39   17   32 1
    40   18   19 1
    41   19   20 2
    42   19   57 1
    43   20   21 1
    44   20   58 1
    45   21   22 1
    46   21   23 1
    47   21   31 1
    48   23   24 1
    49   23   59 1
    50   23   60 1
    51   24   25 1
    52   24   26 1
    53   24   30 1
    54   26   27 1
    55   26   61 1
    56   26   62 1
    57   27   28 2
    58   27   29 1
    59   30   63 1
    60   31   64 1
    61   32   37 ar
    62   32   33 ar
    63   33   34 ar
    64   33   65 1
    65   34   35 ar
    66   34   66 1
    67   35   36 ar
    68   35   38 1
    69   36   37 ar
    70   36   67 1
    71   37   68 1
@<TRIPOS>MOLECULE
CHEMBL121014__1
   68    71     0     0     0
SMALL
USER_CHARGES

@<TRIPOS>ATOM
      1 C1         -0.0167    1.3781    0.0096 C.ar      1 <0>        -0.1282
      2 C2          1.1709    2.0855    0.0021 C.ar      1 <0>        -0.1174
      3 C3          2.3773    1.4107   -0.0130 C.ar      1 <0>        -0.1156
      4 C4          2.3960    0.0285   -0.0201 C.ar      1 <0>        -0.0752
      5 C5          1.2084   -0.6789   -0.0117 C.ar      1 <0>        -0.1198
      6 C6          0.0021   -0.0041    0.0020 C.ar      1 <0>        -0.1193
      7 C7          3.7112   -0.7071   -0.0376 C.3       1 <0>        -0.0800
      8 C8          4.1714   -0.9633    1.3989 C.3       1 <0>        -0.1239
      9 C9          5.5066   -1.7102    1.3812 C.3       1 <0>        -0.1085
     10 C10         5.9667   -1.9663    2.8177 C.3       1 <0>        -0.0051
     11 C11         7.2560   -2.7965    2.8075 C.3       1 <0>        -0.1129
     12 C12         7.8468   -2.8520    4.2181 C.3       1 <0>        -0.1179
     13 C13         8.4289   -1.4819    4.5883 C.3       1 <0>        -0.0398
     14 C14         7.3817   -0.4335    4.3072 C.2       1 <0>        -0.2122
     15 C15         6.2567   -0.6514    3.5018 C.2       1 <0>         0.0951
     16 N1          5.5530    0.4451    3.4632 N.2       1 <0>        -0.2744
     17 N2          6.1943    1.4202    4.2409 N.pl3     1 <0>        -0.3292
     18 C16         7.3313    0.8603    4.7600 C.2       1 <0>         0.1254
     19 C17         8.3123    1.5210    5.6370 C.2       1 <0>        -0.1192
     20 C18         8.8098    2.7068    5.3026 C.2       1 <0>        -0.1414
     21 C19         9.8138    3.3831    6.2002 C.3       1 <0>         0.1413
     22 H1          9.3835    4.3013    6.5998 H         1 <0>         0.1131
     23 C20        11.0724    3.7171    5.3969 C.3       1 <0>        -0.1813
     24 C21        12.0408    4.5135    6.2739 C.3       1 <0>         0.1379
     25 H2         11.5326    5.3922    6.6709 H         1 <0>         0.0940
     26 C22        13.2427    4.9544    5.4361 C.3       1 <0>        -0.2194
     27 C23        14.1352    5.8410    6.2658 C.2       1 <0>         0.4906
     28 O1         13.8375    6.0965    7.4202 O.co2     1 <0>        -0.6809
     29 O2         15.1549    6.3028    5.7827 O.co2     1 <0>        -0.7125
     30 O3         12.4888    3.6933    7.3549 O.3       1 <0>        -0.5278
     31 O4         10.1546    2.5085    7.2777 O.3       1 <0>        -0.5366
     32 C24         5.7511    2.7331    4.4493 C.ar      1 <0>         0.1492
     33 C25         5.9662    3.3534    5.6729 C.ar      1 <0>        -0.0963
     34 C26         5.5290    4.6475    5.8761 C.ar      1 <0>        -0.1297
     35 C27         4.8766    5.3265    4.8607 C.ar      1 <0>         0.0969
     36 C28         4.6608    4.7094    3.6398 C.ar      1 <0>        -0.1357
     37 C29         5.1014    3.4175    3.4307 C.ar      1 <0>        -0.0855
     38 F1          4.4497    6.5925    5.0615 F         1 <0>        -0.1347
     39 H3         -0.9591    1.9053    0.0259 H         1 <0>         0.1189
     40 H4          1.1563    3.1654    0.0076 H         1 <0>         0.1199
     41 H5          3.3051    1.9634   -0.0196 H         1 <0>         0.1189
     42 H6          1.2231   -1.7588   -0.0176 H         1 <0>         0.1193
     43 H7         -0.9258   -0.5567    0.0082 H         1 <0>         0.1193
     44 H8          3.5884   -1.6586   -0.5549 H         1 <0>         0.0682
     45 H9          4.4573   -0.1052   -0.5563 H         1 <0>         0.0690
     46 H10         4.2941   -0.0118    1.9163 H         1 <0>         0.0938
     47 H11         3.4252   -1.5652    1.9176 H         1 <0>         0.0583
     48 H12         5.3838   -2.6617    0.8639 H         1 <0>         0.0683
     49 H13         6.2527   -1.1082    0.8625 H         1 <0>         0.0637
     50 H14         5.1889   -2.5008    3.3631 H         1 <0>         0.0892
     51 H15         7.0331   -3.8080    2.4678 H         1 <0>         0.0717
     52 H16         7.9769   -2.3383    2.1304 H         1 <0>         0.0682
     53 H17         7.0643   -3.1178    4.9289 H         1 <0>         0.0642
     54 H18         8.6365   -3.6026    4.2513 H         1 <0>         0.0691
     55 H19         8.6895   -1.4669    5.6466 H         1 <0>         0.0722
     56 H20         9.3168   -1.2851    3.9875 H         1 <0>         0.0712
     57 H21         8.6275    1.0418    6.5521 H         1 <0>         0.1468
     58 H22         8.4946    3.1860    4.3875 H         1 <0>         0.1134
     59 H23        11.5519    2.7937    5.0721 H         1 <0>         0.0658
     60 H24        10.7997    4.3112    4.5246 H         1 <0>         0.0755
     61 H25        13.8019    4.0765    5.1128 H         1 <0>         0.0568
     62 H26        12.8941    5.5053    4.5625 H         1 <0>         0.0611
     63 H27        12.9511    2.8914    7.0749 H         1 <0>         0.3506
     64 H28        10.5439    1.6695    6.9952 H         1 <0>         0.3679
     65 H29         6.4746    2.8241    6.4652 H         1 <0>         0.1440
     66 H30         5.6957    5.1302    6.8278 H         1 <0>         0.1473
     67 H31         4.1515    5.2405    2.8493 H         1 <0>         0.1434
     68 H32         4.9372    2.9383    2.4768 H         1 <0>         0.1404
@<TRIPOS>BOND
     1    1    6 ar
     2    1    2 ar
     3    1   39 1
     4    2    3 ar
     5    2   40 1
     6    3    4 ar
     7    3   41 1
     8    4    5 ar
     9    4    7 1
    10    5    6 ar
    11    5   42 1
    12    6   43 1
    13    7    8 1
    14    7   44 1
    15    7   45 1
    16    8    9 1
    17    8   46 1
    18    8   47 1
    19    9   10 1
    20    9   48 1
    21    9   49 1
    22   10   15 1
    23   10   11 1
    24   10   50 1
    25   11   12 1
    26   11   51 1
    27   11   52 1
    28   12   13 1
    29   12   53 1
    30   12   54 1
    31   13   14 1
    32   13   55 1
    33   13   56 1
    34   14   18 2
    35   14   15 1
    36   15   16 2
    37   16   17 1
    38   17   18 1
    39   17   32 1
    40   18   19 1
    41   19   20 2
    42   19   57 1
    43   20   21 1
    44   20   58 1
    45   21   22 1
    46   21   23 1
    47   21   31 1
    48   23   24 1
    49   23   59 1
    50   23   60 1
    51   24   25 1
    52   24   26 1
    53   24   30 1
    54   26   27 1
    55   26   61 1
    56   26   62 1
    57   27   28 2
    58   27   29 1
    59   30   63 1
    60   31   64 1
    61   32   37 ar
    62   32   33 ar
    63   33   34 ar
    64   33   65 1
    65   34   35 ar
    66   34   66 1
    67   35   36 ar
    68   35   38 1
    69   36   37 ar
    70   36   67 1
    71   37   68 1
@<TRIPOS>MOLECULE
CHEMBL387514
   75    78     0     0     0
SMALL
USER_CHARGES

@<TRIPOS>ATOM
      1 C1          0.9458   -0.7155   -0.1769 C.3       1 <0>        -0.1801
      2 C2         -0.2049    0.2929   -0.1793 C.3       1 <0>         0.0976
      3 C3         -0.0869    1.1985   -1.4068 C.3       1 <0>        -0.1637
      4 N1         -1.4820   -0.4236   -0.2221 N.pl3     1 <0>        -0.3921
      5 C4         -1.8196   -1.3591   -1.1277 C.2       1 <0>         0.0992
      6 C5         -3.0762   -1.8037   -0.8423 C.2       1 <0>        -0.1580
      7 C6         -3.5263   -1.1017    0.2988 C.2       1 <0>        -0.0738
      8 C7         -2.5308   -0.2483    0.6685 C.2       1 <0>        -0.0423
      9 C8         -2.5020    0.7101    1.7632 C.2       1 <0>         0.5945
     10 O1         -1.4774    1.3588    1.8639 O.2       1 <0>        -0.5668
     11 N2         -3.4266    0.9729    2.6568 N.am      1 <0>        -0.5743
     12 C9         -4.6995    0.3343    2.8584 C.3       1 <0>         0.1128
     13 C10        -5.4040   -0.0640    1.5899 C.3       1 <0>        -0.1336
     14 C11        -4.8555   -1.3087    0.9539 C.3       1 <0>        -0.0553
     15 C12        -3.1189    2.0698    3.5779 C.3       1 <0>         0.1400
     16 C13        -3.6175    3.3681    2.9974 C.ar      1 <0>        -0.1056
     17 C14        -2.7942    4.1221    2.1823 C.ar      1 <0>        -0.0921
     18 C15        -3.2516    5.3130    1.6499 C.ar      1 <0>        -0.1243
     19 C16        -4.5324    5.7496    1.9321 C.ar      1 <0>        -0.1164
     20 C17        -5.3561    4.9950    2.7465 C.ar      1 <0>        -0.1252
     21 C18        -4.9002    3.8021    3.2754 C.ar      1 <0>        -0.1082
     22 C19        -3.8337   -2.8365   -1.5932 C.ar      1 <0>        -0.0057
     23 C20        -4.2143   -2.6021   -2.9127 C.ar      1 <0>        -0.0819
     24 C21        -4.9184   -3.5647   -3.6070 C.ar      1 <0>        -0.1500
     25 C22        -5.2472   -4.7625   -2.9936 C.ar      1 <0>         0.0929
     26 C23        -4.8707   -4.9996   -1.6817 C.ar      1 <0>        -0.1510
     27 C24        -4.1610   -4.0449   -0.9821 C.ar      1 <0>        -0.0799
     28 F1         -5.9373   -5.7018   -3.6766 F         1 <0>        -0.1419
     29 C25        -0.9545   -1.8353   -2.2661 C.3       1 <0>        -0.0624
     30 C26        -0.1950   -3.0927   -1.8381 C.3       1 <0>        -0.1523
     31 C27         0.7411   -3.5317   -2.9658 C.3       1 <0>         0.1138
     32 H1          0.1680   -3.6615   -3.8839 H         1 <0>         0.0978
     33 C28         1.4074   -4.8564   -2.5889 C.3       1 <0>        -0.1862
     34 C29         2.2463   -5.3583   -3.7659 C.3       1 <0>         0.1379
     35 H2          1.6207   -5.4243   -4.6560 H         1 <0>         0.0926
     36 C30         2.8116   -6.7413   -3.4361 C.3       1 <0>        -0.2192
     37 C31         3.5348   -7.2884   -4.6398 C.2       1 <0>         0.4905
     38 O2          3.5927   -6.6329   -5.6662 O.co2     1 <0>        -0.6811
     39 O3          4.0620   -8.3865   -4.5871 O.co2     1 <0>        -0.7134
     40 O4          3.3221   -4.4490   -4.0062 O.3       1 <0>        -0.5278
     41 O5          1.7444   -2.5343   -3.1676 O.3       1 <0>        -0.5409
     42 H3          1.8898   -0.1892   -0.0360 H         1 <0>         0.0756
     43 H4          0.8025   -1.4283    0.6352 H         1 <0>         0.0599
     44 H5          0.9648   -1.2474   -1.1281 H         1 <0>         0.0814
     45 H6         -0.1586    0.8992    0.7253 H         1 <0>         0.1466
     46 H7         -0.2429    0.6085   -2.3100 H         1 <0>         0.0661
     47 H8         -0.8397    1.9848   -1.3520 H         1 <0>         0.0585
     48 H9          0.9061    1.6473   -1.4331 H         1 <0>         0.0757
     49 H10        -4.5461   -0.5590    3.4638 H         1 <0>         0.0645
     50 H11        -5.3445    1.0163    3.4125 H         1 <0>         0.0825
     51 H12        -6.4592   -0.2224    1.8124 H         1 <0>         0.0854
     52 H13        -5.3209    0.7536    0.8738 H         1 <0>         0.0689
     53 H14        -5.5622   -1.6692    0.2064 H         1 <0>         0.0806
     54 H15        -4.7501   -2.0685    1.7282 H         1 <0>         0.0733
     55 H16        -3.6077    1.8883    4.5351 H         1 <0>         0.0862
     56 H17        -2.0406    2.1284    3.7259 H         1 <0>         0.1059
     57 H18        -1.7935    3.7811    1.9618 H         1 <0>         0.1304
     58 H19        -2.6081    5.9025    1.0136 H         1 <0>         0.1207
     59 H20        -4.8895    6.6803    1.5167 H         1 <0>         0.1199
     60 H21        -6.3567    5.3363    2.9672 H         1 <0>         0.1207
     61 H22        -5.5450    3.2107    3.9087 H         1 <0>         0.1191
     62 H23        -3.9590   -1.6683   -3.3914 H         1 <0>         0.1301
     63 H24        -5.2138   -3.3838   -4.6299 H         1 <0>         0.1344
     64 H25        -5.1290   -5.9347   -1.2071 H         1 <0>         0.1339
     65 H26        -3.8640   -4.2323    0.0392 H         1 <0>         0.1300
     66 H27        -1.5816   -2.0653   -3.1275 H         1 <0>         0.0868
     67 H28        -0.2428   -1.0541   -2.5330 H         1 <0>         0.0897
     68 H29         0.3896   -2.8772   -0.9437 H         1 <0>         0.0713
     69 H30        -0.9055   -3.8911   -1.6241 H         1 <0>         0.0747
     70 H31         2.0510   -4.7057   -1.7222 H         1 <0>         0.0614
     71 H32         0.6410   -5.5932   -2.3487 H         1 <0>         0.0738
     72 H33         3.5067   -6.6599   -2.6005 H         1 <0>         0.0557
     73 H34         1.9960   -7.4123   -3.1663 H         1 <0>         0.0607
     74 H35         3.9209   -4.3407   -3.2546 H         1 <0>         0.3493
     75 H36         2.2938   -2.3662   -2.3898 H         1 <0>         0.3623
@<TRIPOS>BOND
     1    1    2 1
     2    1   42 1
     3    1   43 1
     4    1   44 1
     5    2    3 1
     6    2    4 1
     7    2   45 1
     8    3   46 1
     9    3   47 1
    10    3   48 1
    11    4    8 1
    12    4    5 1
    13    5    6 2
    14    5   29 1
    15    6    7 1
    16    6   22 1
    17    7   14 1
    18    7    8 2
    19    8    9 1
    20    9   10 2
    21    9   11 am
    22   11   12 1
    23   11   15 1
    24   12   13 1
    25   12   49 1
    26   12   50 1
    27   13   14 1
    28   13   51 1
    29   13   52 1
    30   14   53 1
    31   14   54 1
    32   15   16 1
    33   15   55 1
    34   15   56 1
    35   16   21 ar
    36   16   17 ar
    37   17   18 ar
    38   17   57 1
    39   18   19 ar
    40   18   58 1
    41   19   20 ar
    42   19   59 1
    43   20   21 ar
    44   20   60 1
    45   21   61 1
    46   22   27 ar
    47   22   23 ar
    48   23   24 ar
    49   23   62 1
    50   24   25 ar
    51   24   63 1
    52   25   26 ar
    53   25   28 1
    54   26   27 ar
    55   26   64 1
    56   27   65 1
    57   29   30 1
    58   29   66 1
    59   29   67 1
    60   30   31 1
    61   30   68 1
    62   30   69 1
    63   31   32 1
    64   31   33 1
    65   31   41 1
    66   33   34 1
    67   33   70 1
    68   33   71 1
    69   34   35 1
    70   34   36 1
    71   34   40 1
    72   36   37 1
    73   36   72 1
    74   36   73 1
    75   37   38 2
    76   37   39 1
    77   40   74 1
    78   41   75 1
@<TRIPOS>MOLECULE
CHEMBL228955
   72    75     0     0     0
SMALL
USER_CHARGES

@<TRIPOS>ATOM
      1 C1          0.9760   -1.0121    0.0049 C.3       1 <0>        -0.1798
      2 C2         -0.1088    0.0640   -0.0739 C.3       1 <0>         0.0965
      3 C3          0.1193    0.9281   -1.3157 C.3       1 <0>        -0.1634
      4 N1         -1.4247   -0.5743   -0.1581 N.pl3     1 <0>        -0.3918
      5 C4         -1.7792   -1.5114   -1.0558 C.2       1 <0>         0.1014
      6 C5         -3.0722   -1.8713   -0.8175 C.2       1 <0>        -0.1571
      7 C6         -3.5281   -1.1133    0.2848 C.2       1 <0>        -0.0715
      8 C7         -2.4990   -0.3119    0.6789 C.2       1 <0>        -0.0438
      9 C8         -2.4596    0.6719    1.7501 C.2       1 <0>         0.5927
     10 O1         -1.4021    1.2595    1.8823 O.2       1 <0>        -0.5518
     11 N2         -3.4050    1.0146    2.5935 N.am      1 <0>        -0.5405
     12 C9         -4.7225    0.4598    2.7523 C.3       1 <0>         0.1124
     13 C10        -5.3935    0.0705    1.4630 C.3       1 <0>        -0.1330
     14 C11        -4.8951   -1.2219    0.8833 C.3       1 <0>        -0.0565
     15 C12        -3.0866    2.0656    3.4591 C.ar      1 <0>         0.1388
     16 C13        -2.9509    3.3568    2.9656 C.ar      1 <0>        -0.0991
     17 C14        -2.6363    4.3927    3.8232 C.ar      1 <0>        -0.1102
     18 C15        -2.4566    4.1455    5.1718 C.ar      1 <0>        -0.1186
     19 C16        -2.5911    2.8611    5.6664 C.ar      1 <0>        -0.1106
     20 C17        -2.9111    1.8217    4.8151 C.ar      1 <0>        -0.1167
     21 C18        -3.8583   -2.8755   -1.5777 C.ar      1 <0>        -0.0065
     22 C19        -4.1651   -2.6533   -2.9183 C.ar      1 <0>        -0.0815
     23 C20        -4.8956   -3.5896   -3.6213 C.ar      1 <0>        -0.1499
     24 C21        -5.3240   -4.7489   -2.9956 C.ar      1 <0>         0.0935
     25 C22        -5.0215   -4.9736   -1.6626 C.ar      1 <0>        -0.1510
     26 C23        -4.2862   -4.0454   -0.9539 C.ar      1 <0>        -0.0797
     27 F1         -6.0393   -5.6627   -3.6873 F         1 <0>        -0.1417
     28 C24        -0.8958   -2.0691   -2.1419 C.3       1 <0>        -0.0629
     29 C25        -0.2362   -3.3592   -1.6505 C.3       1 <0>        -0.1526
     30 C26         0.7182   -3.8852   -2.7245 C.3       1 <0>         0.1139
     31 H1          0.1782   -4.0037   -3.6639 H         1 <0>         0.0981
     32 C27         1.2829   -5.2381   -2.2866 C.3       1 <0>        -0.1863
     33 C28         2.1384   -5.8221   -3.4126 C.3       1 <0>         0.1380
     34 H2          1.5488   -5.8730   -4.3279 H         1 <0>         0.0926
     35 C29         2.6007   -7.2282   -3.0250 C.3       1 <0>        -0.2193
     36 C30         3.3392   -7.8508   -4.1817 C.2       1 <0>         0.4905
     37 O2          3.4825   -7.2278   -5.2198 O.co2     1 <0>        -0.6810
     38 O3          3.7934   -8.9777   -4.0793 O.co2     1 <0>        -0.7134
     39 O4          3.2787   -4.9878   -3.6262 O.3       1 <0>        -0.5279
     40 O5          1.7900   -2.9575   -2.9049 O.3       1 <0>        -0.5409
     41 H3          1.9439   -0.5406    0.1750 H         1 <0>         0.0762
     42 H4          0.7538   -1.6924    0.8270 H         1 <0>         0.0600
     43 H5          1.0030   -1.5699   -0.9312 H         1 <0>         0.0819
     44 H6         -0.0650    0.6900    0.8174 H         1 <0>         0.1455
     45 H7         -0.0335    0.3253   -2.2109 H         1 <0>         0.0669
     46 H8         -0.5846    1.7604   -1.3136 H         1 <0>         0.0586
     47 H9          1.1386    1.3143   -1.3074 H         1 <0>         0.0764
     48 H10        -4.6512   -0.4245    3.3856 H         1 <0>         0.0664
     49 H11        -5.3480    1.1943    3.2595 H         1 <0>         0.0860
     50 H12        -6.4653   -0.0177    1.6409 H         1 <0>         0.0891
     51 H13        -5.2287    0.8619    0.7318 H         1 <0>         0.0701
     52 H14        -5.5891   -1.5587    0.1131 H         1 <0>         0.0828
     53 H15        -4.8710   -1.9660    1.6794 H         1 <0>         0.0746
     54 H16        -3.0907    3.5505    1.9124 H         1 <0>         0.1200
     55 H17        -2.5303    5.3969    3.4400 H         1 <0>         0.1255
     56 H18        -2.2104    4.9572    5.8403 H         1 <0>         0.1242
     57 H19        -2.4501    2.6714    6.7202 H         1 <0>         0.1262
     58 H20        -3.0207    0.8197    5.2028 H         1 <0>         0.1235
     59 H21        -3.8321   -1.7494   -3.4066 H         1 <0>         0.1304
     60 H22        -5.1339   -3.4180   -4.6606 H         1 <0>         0.1347
     61 H23        -5.3577   -5.8786   -1.1785 H         1 <0>         0.1341
     62 H24        -4.0469   -4.2234    0.0841 H         1 <0>         0.1301
     63 H25        -1.4972   -2.2824   -3.0257 H         1 <0>         0.0877
     64 H26        -0.1255   -1.3403   -2.3938 H         1 <0>         0.0902
     65 H27         0.3218   -3.1566   -0.7363 H         1 <0>         0.0713
     66 H28        -1.0041   -4.1062   -1.4494 H         1 <0>         0.0750
     67 H29         1.8967   -5.1045   -1.3958 H         1 <0>         0.0614
     68 H30         0.4619   -5.9194   -2.0633 H         1 <0>         0.0739
     69 H31         3.2629   -7.1677   -2.1613 H         1 <0>         0.0556
     70 H32         1.7337   -7.8400   -2.7759 H         1 <0>         0.0607
     71 H33         3.8502   -4.8968   -2.8515 H         1 <0>         0.3493
     72 H34         2.3149   -2.8031   -2.1076 H         1 <0>         0.3624
@<TRIPOS>BOND
     1    1    2 1
     2    1   41 1
     3    1   42 1
     4    1   43 1
     5    2    3 1
     6    2    4 1
     7    2   44 1
     8    3   45 1
     9    3   46 1
    10    3   47 1
    11    4    8 1
    12    4    5 1
    13    5    6 2
    14    5   28 1
    15    6    7 1
    16    6   21 1
    17    7   14 1
    18    7    8 2
    19    8    9 1
    20    9   10 2
    21    9   11 am
    22   11   12 1
    23   11   15 1
    24   12   13 1
    25   12   48 1
    26   12   49 1
    27   13   14 1
    28   13   50 1
    29   13   51 1
    30   14   52 1
    31   14   53 1
    32   15   20 ar
    33   15   16 ar
    34   16   17 ar
    35   16   54 1
    36   17   18 ar
    37   17   55 1
    38   18   19 ar
    39   18   56 1
    40   19   20 ar
    41   19   57 1
    42   20   58 1
    43   21   26 ar
    44   21   22 ar
    45   22   23 ar
    46   22   59 1
    47   23   24 ar
    48   23   60 1
    49   24   25 ar
    50   24   27 1
    51   25   26 ar
    52   25   61 1
    53   26   62 1
    54   28   29 1
    55   28   63 1
    56   28   64 1
    57   29   30 1
    58   29   65 1
    59   29   66 1
    60   30   31 1
    61   30   32 1
    62   30   40 1
    63   32   33 1
    64   32   67 1
    65   32   68 1
    66   33   34 1
    67   33   35 1
    68   33   39 1
    69   35   36 1
    70   35   69 1
    71   35   70 1
    72   36   37 2
    73   36   38 1
    74   39   71 1
    75   40   72 1
@<TRIPOS>MOLECULE
CHEMBL228954
   63    66     0     0     0
SMALL
USER_CHARGES

@<TRIPOS>ATOM
      1 C1         -0.0187    1.5258    0.0104 C.3       1 <0>        -0.1761
      2 C2          0.0021   -0.0041    0.0020 C.3       1 <0>         0.1255
      3 C3         -1.4333   -0.5336    0.0129 C.3       1 <0>        -0.1760
      4 N1          0.6878   -0.4765   -1.2033 N.pl3     1 <0>        -0.3916
      5 C4          1.8024   -1.2488   -1.2093 C.2       1 <0>         0.1094
      6 C5          2.1716   -1.5023   -2.4976 C.2       1 <0>        -0.1310
      7 C6          1.1989   -0.8270   -3.3486 C.2       1 <0>        -0.0424
      8 C7          0.2904   -0.2057   -2.4917 C.2       1 <0>        -0.0476
      9 C8         -0.7840    0.5316   -3.0404 C.2       1 <0>         0.5798
     10 O1         -1.5759    1.0767   -2.2913 O.2       1 <0>        -0.5354
     11 N2         -0.9521    0.6454   -4.3688 N.am      1 <0>        -0.6288
     12 H1         -1.7018    1.1603   -4.7060 H         1 <0>         0.4184
     13 C9         -0.0870    0.0503   -5.2694 C.ar      1 <0>         0.1598
     14 C10         1.0100   -0.6928   -4.7998 C.ar      1 <0>        -0.0549
     15 C11         1.8813   -1.2948   -5.7057 C.ar      1 <0>        -0.0692
     16 C12         1.6702   -1.1455   -7.0596 C.ar      1 <0>        -0.1424
     17 C13         0.5972   -0.3999   -7.5229 C.ar      1 <0>        -0.0826
     18 C14        -0.2842    0.1859   -6.6383 C.ar      1 <0>        -0.1554
     19 C15         3.3347   -2.3069   -2.9453 C.ar      1 <0>        -0.0127
     20 C16         4.6307   -1.8784   -2.6640 C.ar      1 <0>        -0.0788
     21 C17         5.7096   -2.6300   -3.0824 C.ar      1 <0>        -0.1489
     22 C18         5.5061   -3.8088   -3.7811 C.ar      1 <0>         0.0978
     23 C19         4.2196   -4.2385   -4.0629 C.ar      1 <0>        -0.1506
     24 C20         3.1346   -3.4963   -3.6434 C.ar      1 <0>        -0.0793
     25 F1          6.5654   -4.5413   -4.1893 F         1 <0>        -0.1400
     26 C21         2.5218   -1.7487    0.0169 C.3       1 <0>        -0.0581
     27 C22         1.9438   -3.1036    0.4304 C.3       1 <0>        -0.1451
     28 C23         2.6741   -3.6112    1.6753 C.3       1 <0>         0.1144
     29 H2          3.7466   -3.6369    1.4822 H         1 <0>         0.0991
     30 C24         2.1833   -5.0198    2.0157 C.3       1 <0>        -0.1866
     31 C25         3.0003   -5.5762    3.1836 C.3       1 <0>         0.1377
     32 H3          4.0614   -5.5332    2.9378 H         1 <0>         0.0929
     33 C26         2.5954   -7.0286    3.4431 C.3       1 <0>        -0.2194
     34 C27         3.4836   -7.6148    4.5101 C.2       1 <0>         0.4905
     35 O2          4.3593   -6.9340    5.0161 O.co2     1 <0>        -0.6811
     36 O3          3.3264   -8.7699    4.8673 O.co2     1 <0>        -0.7132
     37 O4          2.7506   -4.7956    4.3542 O.3       1 <0>        -0.5280
     38 O5          2.4087   -2.7360    2.7733 O.3       1 <0>        -0.5418
     39 H4          1.0039    1.9031    0.0027 H         1 <0>         0.0551
     40 H5         -0.5459    1.8868   -0.8726 H         1 <0>         0.0923
     41 H6         -0.5289    1.8773    0.9072 H         1 <0>         0.0741
     42 H7          0.5293   -0.3651    0.8851 H         1 <0>         0.1031
     43 H8         -1.9605   -0.1726   -0.8702 H         1 <0>         0.0924
     44 H9         -1.4185   -1.6235    0.0069 H         1 <0>         0.0552
     45 H10        -1.9435   -0.1821    0.9097 H         1 <0>         0.0742
     46 H11         2.7186   -1.8758   -5.3484 H         1 <0>         0.1347
     47 H12         2.3444   -1.6114   -7.7631 H         1 <0>         0.1277
     48 H13         0.4415   -0.2892   -8.5859 H         1 <0>         0.1289
     49 H14        -1.1202    0.7601   -7.0094 H         1 <0>         0.1304
     50 H15         4.7903   -0.9594   -2.1197 H         1 <0>         0.1328
     51 H16         6.7143   -2.2985   -2.8652 H         1 <0>         0.1368
     52 H17         4.0655   -5.1580   -4.6082 H         1 <0>         0.1365
     53 H18         2.1319   -3.8346   -3.8593 H         1 <0>         0.1324
     54 H19         3.5834   -1.8588   -0.2043 H         1 <0>         0.0944
     55 H20         2.3923   -1.0349    0.8304 H         1 <0>         0.0852
     56 H21         0.8821   -2.9935    0.6516 H         1 <0>         0.0629
     57 H22         2.0733   -3.8174   -0.3831 H         1 <0>         0.0769
     58 H23         1.1305   -4.9801    2.2952 H         1 <0>         0.0617
     59 H24         2.3045   -5.6666    1.1468 H         1 <0>         0.0742
     60 H25         1.5577   -7.0627    3.7750 H         1 <0>         0.0557
     61 H26         2.7021   -7.6053    2.5243 H         1 <0>         0.0609
     62 H27         1.8243   -4.7883    4.6319 H         1 <0>         0.3495
     63 H28         1.4717   -2.6643    3.0015 H         1 <0>         0.3637
@<TRIPOS>BOND
     1    1    2 1
     2    1   39 1
     3    1   40 1
     4    1   41 1
     5    2    3 1
     6    2    4 1
     7    2   42 1
     8    3   43 1
     9    3   44 1
    10    3   45 1
    11    4    8 1
    12    4    5 1
    13    5    6 2
    14    5   26 1
    15    6    7 1
    16    6   19 1
    17    7   14 1
    18    7    8 2
    19    8    9 1
    20    9   10 2
    21    9   11 am
    22   11   12 1
    23   11   13 1
    24   13   18 ar
    25   13   14 ar
    26   14   15 ar
    27   15   16 ar
    28   15   46 1
    29   16   17 ar
    30   16   47 1
    31   17   18 ar
    32   17   48 1
    33   18   49 1
    34   19   24 ar
    35   19   20 ar
    36   20   21 ar
    37   20   50 1
    38   21   22 ar
    39   21   51 1
    40   22   23 ar
    41   22   25 1
    42   23   24 ar
    43   23   52 1
    44   24   53 1
    45   26   27 1
    46   26   54 1
    47   26   55 1
    48   27   28 1
    49   27   56 1
    50   27   57 1
    51   28   29 1
    52   28   30 1
    53   28   38 1
    54   30   31 1
    55   30   58 1
    56   30   59 1
    57   31   32 1
    58   31   33 1
    59   31   37 1
    60   33   34 1
    61   33   60 1
    62   33   61 1
    63   34   35 2
    64   34   36 1
    65   37   62 1
    66   38   63 1
@<TRIPOS>MOLECULE
CHEMBL342975
   64    66     0     0     0
SMALL
USER_CHARGES

@<TRIPOS>ATOM
      1 C1         -0.5589    1.4485    0.5837 C.3       1 <0>        -0.1161
      2 C2         -0.4246   -0.0470    0.4546 C.ar      1 <0>        -0.0833
      3 C3         -0.4129   -0.6320   -0.7989 C.ar      1 <0>        -0.1211
      4 C4         -0.2902   -2.0008   -0.9233 C.ar      1 <0>        -0.1020
      5 C5         -0.1778   -2.7944    0.2173 C.ar      1 <0>        -0.0481
      6 C6         -0.1901   -2.1992    1.4779 C.ar      1 <0>        -0.0898
      7 C7         -0.3077   -0.8288    1.5898 C.ar      1 <0>        -0.1185
      8 C8         -0.0462   -4.2655    0.0903 C.ar      1 <0>        -0.0267
      9 C9         -1.0051   -4.9961   -0.6066 C.ar      1 <0>        -0.1110
     10 C10        -0.8812   -6.3660   -0.7247 C.ar      1 <0>        -0.0988
     11 C11         0.1930   -7.0245   -0.1533 C.ar      1 <0>        -0.0860
     12 C12         1.1576   -6.3153    0.5441 C.ar      1 <0>         0.1161
     13 C13         1.0484   -4.9277    0.6668 C.ar      1 <0>        -0.0562
     14 C14         2.0787   -4.1612    1.4062 C.ar      1 <0>        -0.0488
     15 C15         2.2308   -4.3395    2.7808 C.ar      1 <0>        -0.0637
     16 C16         3.1913   -3.6236    3.4648 C.ar      1 <0>        -0.1510
     17 C17         4.0042   -2.7285    2.7882 C.ar      1 <0>         0.1039
     18 C18         3.8566   -2.5476    1.4224 C.ar      1 <0>        -0.1521
     19 C19         2.9030   -3.2635    0.7286 C.ar      1 <0>        -0.0721
     20 F1          4.9435   -2.0296    3.4623 F         1 <0>        -0.1388
     21 O1          2.2103   -6.9672    1.1031 O.3       1 <0>        -0.3140
     22 C20         3.4127   -7.0369    0.3341 C.3       1 <0>         0.0380
     23 C21         4.5147   -7.6924    1.1689 C.3       1 <0>         0.1201
     24 C22         5.8329   -7.6546    0.3932 C.3       1 <0>        -0.1843
     25 C23         6.9595   -8.1962    1.2754 C.3       1 <0>         0.1404
     26 H1          6.9894   -7.6371    2.2106 H         1 <0>         0.0942
     27 C24         8.2962   -8.0433    0.5468 C.3       1 <0>        -0.2189
     28 C25         9.4179   -8.4623    1.4619 C.2       1 <0>         0.4909
     29 O2          9.1711   -8.8475    2.5920 O.co2     1 <0>        -0.6801
     30 O3         10.5722   -8.4160    1.0721 O.co2     1 <0>        -0.7128
     31 O4          6.7241   -9.5779    1.5539 O.3       1 <0>        -0.5265
     32 O5          4.1615   -9.0498    1.4423 O.3       1 <0>        -0.5309
     33 C26         0.3144   -8.5204   -0.2896 C.3       1 <0>        -0.0602
     34 C27        -0.9093   -9.1907    0.3383 C.3       1 <0>        -0.1401
     35 C28         0.3956   -8.8925   -1.7714 C.3       1 <0>        -0.1433
     36 H2          0.4312    1.9043    0.5752 H         1 <0>         0.0706
     37 H3         -1.1437    1.8342   -0.2514 H         1 <0>         0.0654
     38 H4         -1.0614    1.6886    1.5207 H         1 <0>         0.0656
     39 H5         -0.5004   -0.0162   -1.6818 H         1 <0>         0.1217
     40 H6         -0.2816   -2.4565   -1.9024 H         1 <0>         0.1222
     41 H7         -0.1034   -2.8090    2.3650 H         1 <0>         0.1212
     42 H8         -0.3126   -0.3661    2.5657 H         1 <0>         0.1213
     43 H9         -1.8473   -4.4902   -1.0552 H         1 <0>         0.1268
     44 H10        -1.6281   -6.9274   -1.2663 H         1 <0>         0.1278
     45 H11         1.5973   -5.0367    3.3091 H         1 <0>         0.1330
     46 H12         3.3096   -3.7607    4.5295 H         1 <0>         0.1373
     47 H13         4.4920   -1.8483    0.8994 H         1 <0>         0.1347
     48 H14         2.7921   -3.1257   -0.3368 H         1 <0>         0.1271
     49 H15         3.2360   -7.6292   -0.5637 H         1 <0>         0.0536
     50 H16         3.7215   -6.0307    0.0506 H         1 <0>         0.0585
     51 H17         4.6300   -7.1508    2.1078 H         1 <0>         0.1047
     52 H18         5.7451   -8.2697   -0.5024 H         1 <0>         0.0654
     53 H19         6.0571   -6.6269    0.1076 H         1 <0>         0.0755
     54 H20         8.2990   -8.6726   -0.3431 H         1 <0>         0.0568
     55 H21         8.4343   -7.0019    0.2559 H         1 <0>         0.0612
     56 H22         6.6851  -10.1369    0.7658 H         1 <0>         0.3501
     57 H23         4.0424   -9.5922    0.6506 H         1 <0>         0.3629
     58 H24         1.2161   -8.8597    0.2202 H         1 <0>         0.0914
     59 H25        -1.8110   -8.8513   -0.1715 H         1 <0>         0.0531
     60 H26        -0.8215  -10.2726    0.2397 H         1 <0>         0.0590
     61 H27        -0.9671   -8.9255    1.3940 H         1 <0>         0.0569
     62 H28         1.2673   -8.4150   -2.2187 H         1 <0>         0.0526
     63 H29         0.4833   -9.9745   -1.8700 H         1 <0>         0.0602
     64 H30        -0.5061   -8.5532   -2.2812 H         1 <0>         0.0549
@<TRIPOS>BOND
     1    1    2 1
     2    1   36 1
     3    1   37 1
     4    1   38 1
     5    2    7 ar
     6    2    3 ar
     7    3    4 ar
     8    3   39 1
     9    4    5 ar
    10    4   40 1
    11    5    6 ar
    12    5    8 1
    13    6    7 ar
    14    6   41 1
    15    7   42 1
    16    8   13 ar
    17    8    9 ar
    18    9   10 ar
    19    9   43 1
    20   10   11 ar
    21   10   44 1
    22   11   12 ar
    23   11   33 1
    24   12   13 ar
    25   12   21 1
    26   13   14 1
    27   14   19 ar
    28   14   15 ar
    29   15   16 ar
    30   15   45 1
    31   16   17 ar
    32   16   46 1
    33   17   18 ar
    34   17   20 1
    35   18   19 ar
    36   18   47 1
    37   19   48 1
    38   21   22 1
    39   22   23 1
    40   22   49 1
    41   22   50 1
    42   23   24 1
    43   23   32 1
    44   23   51 1
    45   24   25 1
    46   24   52 1
    47   24   53 1
    48   25   26 1
    49   25   27 1
    50   25   31 1
    51   27   28 1
    52   27   54 1
    53   27   55 1
    54   28   29 2
    55   28   30 1
    56   31   56 1
    57   32   57 1
    58   33   34 1
    59   33   35 1
    60   33   58 1
    61   34   59 1
    62   34   60 1
    63   34   61 1
    64   35   62 1
    65   35   63 1
    66   35   64 1
@<TRIPOS>MOLECULE
CHEMBL342975__1
   64    66     0     0     0
SMALL
USER_CHARGES

@<TRIPOS>ATOM
      1 C1         -0.6741    1.4320    0.5587 C.3       1 <0>        -0.1161
      2 C2         -0.5148   -0.0610    0.4306 C.ar      1 <0>        -0.0834
      3 C3         -0.4796   -0.6451   -0.8229 C.ar      1 <0>        -0.1212
      4 C4         -0.3339   -2.0118   -0.9463 C.ar      1 <0>        -0.1021
      5 C5         -0.2221   -2.8041    0.1953 C.ar      1 <0>        -0.0477
      6 C6         -0.2582   -2.2099    1.4558 C.ar      1 <0>        -0.0897
      7 C7         -0.3986   -0.8415    1.5668 C.ar      1 <0>        -0.1184
      8 C8         -0.0658   -4.2729    0.0692 C.ar      1 <0>        -0.0272
      9 C9         -1.0050   -5.0181   -0.6389 C.ar      1 <0>        -0.1111
     10 C10        -0.8583   -6.3858   -0.7560 C.ar      1 <0>        -0.0983
     11 C11         0.2196   -7.0276   -0.1725 C.ar      1 <0>        -0.0869
     12 C12         1.1647   -6.3037    0.5361 C.ar      1 <0>         0.1164
     13 C13         1.0323   -4.9181    0.6581 C.ar      1 <0>        -0.0557
     14 C14         2.0418   -4.1359    1.4096 C.ar      1 <0>        -0.0478
     15 C15         2.1789   -4.3105    2.7862 C.ar      1 <0>        -0.0558
     16 C16         3.1201   -3.5799    3.4815 C.ar      1 <0>        -0.1470
     17 C17         3.9285   -2.6738    2.8142 C.ar      1 <0>         0.1022
     18 C18         3.7957   -2.4965    1.4464 C.ar      1 <0>        -0.1544
     19 C19         2.8615   -3.2270    0.7414 C.ar      1 <0>        -0.0739
     20 F1          4.8489   -1.9606    3.4993 F         1 <0>        -0.1399
     21 O1          2.2210   -6.9393    1.1070 O.3       1 <0>        -0.3143
     22 C20         3.4323   -6.9922    0.3507 C.3       1 <0>         0.0385
     23 C21         4.5333   -7.6365    1.1955 C.3       1 <0>         0.1172
     24 C22         5.7942   -7.8070    0.3458 C.3       1 <0>        -0.1836
     25 C23         6.8532   -8.5630    1.1507 C.3       1 <0>         0.1379
     26 H1          7.0310   -8.0455    2.0934 H         1 <0>         0.1039
     27 C24         8.1551   -8.6247    0.3493 C.3       1 <0>        -0.2183
     28 C25         9.2326   -9.2602    1.1896 C.2       1 <0>         0.4908
     29 O2          8.9825   -9.6295    2.3243 O.co2     1 <0>        -0.6798
     30 O3         10.3545   -9.4050    0.7348 O.co2     1 <0>        -0.7126
     31 O4          6.3932   -9.8899    1.4151 O.3       1 <0>        -0.5399
     32 O5          4.8241   -6.8001    2.3170 O.3       1 <0>        -0.5407
     33 C26         0.3660   -8.5214   -0.3080 C.3       1 <0>        -0.0602
     34 C27        -0.8541   -9.2112    0.3055 C.3       1 <0>        -0.1407
     35 C28         0.4701   -8.8914   -1.7889 C.3       1 <0>        -0.1435
     36 H2          0.3087    1.9034    0.5617 H         1 <0>         0.0705
     37 H3         -1.2553    1.8090   -0.2829 H         1 <0>         0.0654
     38 H4         -1.1910    1.6637    1.4900 H         1 <0>         0.0656
     39 H5         -0.5667   -0.0304   -1.7065 H         1 <0>         0.1216
     40 H6         -0.3070   -2.4668   -1.9255 H         1 <0>         0.1221
     41 H7         -0.1719   -2.8187    2.3437 H         1 <0>         0.1212
     42 H8         -0.4219   -0.3795    2.5427 H         1 <0>         0.1213
     43 H9         -1.8499   -4.5253   -1.0970 H         1 <0>         0.1268
     44 H10        -1.5899   -6.9587   -1.3065 H         1 <0>         0.1280
     45 H11         1.5490   -5.0163    3.3073 H         1 <0>         0.1318
     46 H12         3.2268   -3.7142    4.5478 H         1 <0>         0.1366
     47 H13         4.4275   -1.7886    0.9306 H         1 <0>         0.1334
     48 H14         2.7622   -3.0919   -0.3255 H         1 <0>         0.1258
     49 H15         3.2724   -7.5843   -0.5504 H         1 <0>         0.0593
     50 H16         3.7318   -5.9816    0.0731 H         1 <0>         0.0531
     51 H17         4.1975   -8.6120    1.5472 H         1 <0>         0.1140
     52 H18         5.5517   -8.3706   -0.5552 H         1 <0>         0.0705
     53 H19         6.1805   -6.8263    0.0680 H         1 <0>         0.0710
     54 H20         7.9994   -9.2183   -0.5515 H         1 <0>         0.0568
     55 H21         8.4588   -7.6155    0.0714 H         1 <0>         0.0619
     56 H22         6.2143  -10.4099    0.6197 H         1 <0>         0.3537
     57 H23         5.1293   -5.9141    2.0782 H         1 <0>         0.3650
     58 H24         1.2670   -8.8468    0.2120 H         1 <0>         0.0887
     59 H25        -1.7551   -8.8858   -0.2145 H         1 <0>         0.0539
     60 H26        -0.7482  -10.2916    0.2075 H         1 <0>         0.0594
     61 H27        -0.9283   -8.9475    1.3605 H         1 <0>         0.0570
     62 H28         1.3393   -8.4000   -2.2260 H         1 <0>         0.0533
     63 H29         0.5760   -9.9718   -1.8869 H         1 <0>         0.0605
     64 H30        -0.4309   -8.5660   -2.3089 H         1 <0>         0.0554
@<TRIPOS>BOND
     1    1    2 1
     2    1   36 1
     3    1   37 1
     4    1   38 1
     5    2    7 ar
     6    2    3 ar
     7    3    4 ar
     8    3   39 1
     9    4    5 ar
    10    4   40 1
    11    5    6 ar
    12    5    8 1
    13    6    7 ar
    14    6   41 1
    15    7   42 1
    16    8   13 ar
    17    8    9 ar
    18    9   10 ar
    19    9   43 1
    20   10   11 ar
    21   10   44 1
    22   11   12 ar
    23   11   33 1
    24   12   13 ar
    25   12   21 1
    26   13   14 1
    27   14   19 ar
    28   14   15 ar
    29   15   16 ar
    30   15   45 1
    31   16   17 ar
    32   16   46 1
    33   17   18 ar
    34   17   20 1
    35   18   19 ar
    36   18   47 1
    37   19   48 1
    38   21   22 1
    39   22   23 1
    40   22   49 1
    41   22   50 1
    42   23   24 1
    43   23   32 1
    44   23   51 1
    45   24   25 1
    46   24   52 1
    47   24   53 1
    48   25   26 1
    49   25   27 1
    50   25   31 1
    51   27   28 1
    52   27   54 1
    53   27   55 1
    54   28   29 2
    55   28   30 1
    56   31   56 1
    57   32   57 1
    58   33   34 1
    59   33   35 1
    60   33   58 1
    61   34   59 1
    62   34   60 1
    63   34   61 1
    64   35   62 1
    65   35   63 1
    66   35   64 1
@<TRIPOS>MOLECULE
CHEMBL389442
   76    80     0     0     0
SMALL
USER_CHARGES

@<TRIPOS>ATOM
      1 C1          0.1818    1.9378    0.2076 C.3       1 <0>        -0.1748
      2 C2          0.3466    0.4173    0.1663 C.3       1 <0>         0.1268
      3 C3          1.0608   -0.0530    1.4349 C.3       1 <0>        -0.1762
      4 N1         -0.9726   -0.2148    0.0857 N.pl3     1 <0>        -0.3911
      5 C4         -1.3847   -1.0243   -0.9212 C.2       1 <0>         0.1070
      6 C5         -2.6618   -1.4366   -0.6779 C.2       1 <0>        -0.1311
      7 C6         -3.0615   -0.8262    0.5847 C.2       1 <0>        -0.0458
      8 C7         -1.9693   -0.0776    1.0232 C.2       1 <0>        -0.0427
      9 C8         -2.0628    0.6325    2.2423 C.2       1 <0>         0.5750
     10 O1         -1.1093    1.2889    2.6235 O.2       1 <0>        -0.5155
     11 N2         -3.1789    0.6007    2.9900 N.am      1 <0>        -0.5160
     12 C9         -4.2932   -0.1260    2.6109 C.ar      1 <0>         0.1667
     13 C10        -4.2795   -0.8510    1.4065 C.ar      1 <0>        -0.0541
     14 C11        -5.4008   -1.5847    1.0236 C.ar      1 <0>        -0.0686
     15 C12        -6.5245   -1.5826    1.8219 C.ar      1 <0>        -0.1438
     16 C13        -6.5439   -0.8546    3.0015 C.ar      1 <0>        -0.0828
     17 C14        -5.4345   -0.1405    3.4036 C.ar      1 <0>        -0.1608
     18 C15        -3.2164    1.3576    4.2438 C.3       1 <0>         0.1447
     19 C16        -2.8668    0.4458    5.3916 C.ar      1 <0>        -0.1510
     20 C17        -3.8671   -0.0731    6.1919 C.ar      1 <0>        -0.0749
     21 C18        -3.5467   -0.9095    7.2447 C.ar      1 <0>        -0.1344
     22 C19        -2.2254   -1.2280    7.4986 C.ar      1 <0>        -0.0816
     23 C20        -1.2237   -0.7108    6.6997 C.ar      1 <0>        -0.1609
     24 C21        -1.5439    0.1230    5.6414 C.ar      1 <0>         0.1231
     25 F1         -0.5657    0.6255    4.8567 F         1 <0>        -0.1159
     26 C22        -3.4833   -2.3302   -1.5306 C.ar      1 <0>        -0.0113
     27 C23        -3.8642   -1.9217   -2.8074 C.ar      1 <0>        -0.0790
     28 C24        -4.6285   -2.7562   -3.5971 C.ar      1 <0>        -0.1489
     29 C25        -5.0170   -3.9984   -3.1225 C.ar      1 <0>         0.0972
     30 C26        -4.6407   -4.4085   -1.8539 C.ar      1 <0>        -0.1506
     31 C27        -3.8717   -3.5830   -1.0594 C.ar      1 <0>        -0.0794
     32 F2         -5.7656   -4.8120   -3.8989 F         1 <0>        -0.1403
     33 C28        -0.5599   -1.4082   -2.1226 C.3       1 <0>        -0.0573
     34 C29         0.2259   -2.6845   -1.8150 C.3       1 <0>        -0.1449
     35 C30         1.0633   -3.0743   -3.0347 C.3       1 <0>         0.1146
     36 H1          0.4156   -3.1623   -3.9070 H         1 <0>         0.0990
     37 C31         1.7516   -4.4155   -2.7733 C.3       1 <0>        -0.1865
     38 C32         2.4877   -4.8658   -4.0367 C.3       1 <0>         0.1379
     39 H2          1.7903   -4.8912   -4.8740 H         1 <0>         0.0929
     40 C33         3.0712   -6.2629   -3.8164 C.3       1 <0>        -0.2196
     41 C34         3.6895   -6.7570   -5.0988 C.2       1 <0>         0.4907
     42 O2          3.6658   -6.0566   -6.0965 O.co2     1 <0>        -0.6811
     43 O3          4.2135   -7.8571   -5.1387 O.co2     1 <0>        -0.7133
     44 O4          3.5446   -3.9482   -4.3248 O.3       1 <0>        -0.5280
     45 O5          2.0516   -2.0704   -3.2746 O.3       1 <0>        -0.5418
     46 H3          1.1633    2.4081    0.2676 H         1 <0>         0.0730
     47 H4         -0.3270    2.2729   -0.6962 H         1 <0>         0.0540
     48 H5         -0.4082    2.2157    1.0810 H         1 <0>         0.0932
     49 H6          0.9366    0.1394   -0.7071 H         1 <0>         0.1013
     50 H7          0.4708    0.2249    2.3083 H         1 <0>         0.0966
     51 H8          1.1782   -1.1363    1.4054 H         1 <0>         0.0529
     52 H9          2.0423    0.4173    1.4949 H         1 <0>         0.0726
     53 H10        -5.3895   -2.1524    0.1050 H         1 <0>         0.1338
     54 H11        -7.3943   -2.1506    1.5267 H         1 <0>         0.1266
     55 H12        -7.4298   -0.8597    3.6192 H         1 <0>         0.1278
     56 H13        -5.4577    0.4190    4.3271 H         1 <0>         0.1300
     57 H14        -2.4966    2.1747    4.1967 H         1 <0>         0.1131
     58 H15        -4.2171    1.7630    4.3937 H         1 <0>         0.1009
     59 H16        -4.8995    0.1753    5.9947 H         1 <0>         0.1332
     60 H17        -4.3290   -1.3142    7.8697 H         1 <0>         0.1312
     61 H18        -1.9762   -1.8810    8.3219 H         1 <0>         0.1330
     62 H19        -0.1917   -0.9595    6.8984 H         1 <0>         0.1355
     63 H20        -3.5621   -0.9534   -3.1781 H         1 <0>         0.1326
     64 H21        -4.9244   -2.4404   -4.5866 H         1 <0>         0.1366
     65 H22        -4.9461   -5.3776   -1.4877 H         1 <0>         0.1361
     66 H23        -3.5746   -3.9054   -0.0724 H         1 <0>         0.1318
     67 H24        -1.2176   -1.5828   -2.9741 H         1 <0>         0.0938
     68 H25         0.1346   -0.6021   -2.3592 H         1 <0>         0.0847
     69 H26         0.8836   -2.5099   -0.9635 H         1 <0>         0.0625
     70 H27        -0.4685   -3.4906   -1.5784 H         1 <0>         0.0764
     71 H28         2.4654   -4.3045   -1.9570 H         1 <0>         0.0615
     72 H29         1.0039   -5.1611   -2.5032 H         1 <0>         0.0740
     73 H30         3.8334   -6.2198   -3.0385 H         1 <0>         0.0557
     74 H31         2.2773   -6.9440   -3.5099 H         1 <0>         0.0609
     75 H32         4.2041   -3.8744   -3.6214 H         1 <0>         0.3495
     76 H33         2.6644   -1.9379   -2.5383 H         1 <0>         0.3637
@<TRIPOS>BOND
     1    1    2 1
     2    1   46 1
     3    1   47 1
     4    1   48 1
     5    2    3 1
     6    2    4 1
     7    2   49 1
     8    3   50 1
     9    3   51 1
    10    3   52 1
    11    4    8 1
    12    4    5 1
    13    5    6 2
    14    5   33 1
    15    6    7 1
    16    6   26 1
    17    7   13 1
    18    7    8 2
    19    8    9 1
    20    9   10 2
    21    9   11 am
    22   11   12 1
    23   11   18 1
    24   12   17 ar
    25   12   13 ar
    26   13   14 ar
    27   14   15 ar
    28   14   53 1
    29   15   16 ar
    30   15   54 1
    31   16   17 ar
    32   16   55 1
    33   17   56 1
    34   18   19 1
    35   18   57 1
    36   18   58 1
    37   19   24 ar
    38   19   20 ar
    39   20   21 ar
    40   20   59 1
    41   21   22 ar
    42   21   60 1
    43   22   23 ar
    44   22   61 1
    45   23   24 ar
    46   23   62 1
    47   24   25 1
    48   26   31 ar
    49   26   27 ar
    50   27   28 ar
    51   27   63 1
    52   28   29 ar
    53   28   64 1
    54   29   30 ar
    55   29   32 1
    56   30   31 ar
    57   30   65 1
    58   31   66 1
    59   33   34 1
    60   33   67 1
    61   33   68 1
    62   34   35 1
    63   34   69 1
    64   34   70 1
    65   35   36 1
    66   35   37 1
    67   35   45 1
    68   37   38 1
    69   37   71 1
    70   37   72 1
    71   38   39 1
    72   38   40 1
    73   38   44 1
    74   40   41 1
    75   40   73 1
    76   40   74 1
    77   41   42 2
    78   41   43 1
    79   44   75 1
    80   45   76 1
@<TRIPOS>MOLECULE
CHEMBL170906
   60    63     0     0     0
SMALL
USER_CHARGES

@<TRIPOS>ATOM
      1 C1          1.0623    0.6416   -0.5788 C.3       1 <0>        -0.1420
      2 C2          0.8539   -0.8367   -0.2438 C.3       1 <0>        -0.0595
      3 H1          1.4621   -1.4543   -0.9047 H         1 <0>         0.0842
      4 C3         -0.6277   -1.2032   -0.4072 C.3       1 <0>        -0.1278
      5 C4         -0.7936   -2.6880   -0.0906 C.3       1 <0>         0.0900
      6 H2         -0.2075   -3.2700   -0.8018 H         1 <0>         0.0844
      7 C5         -0.3375   -3.0204    1.3105 C.3       1 <0>        -0.0442
      8 C6         -1.5121   -3.1160    2.2869 C.3       1 <0>        -0.0611
      9 H3         -1.9346   -2.1243    2.4488 H         1 <0>         0.0741
     10 C7         -1.0023   -3.6793    3.6144 C.3       1 <0>        -0.0604
     11 H4         -1.7897   -3.5931    4.3631 H         1 <0>         0.0820
     12 C8          0.2126   -2.9464    4.0959 C.2       1 <0>        -0.1382
     13 C9          0.9912   -2.2123    3.3201 C.2       1 <0>        -0.1243
     14 C10         0.6690   -2.0661    1.8818 C.2       1 <0>        -0.0857
     15 C11         1.2364   -1.0940    1.1908 C.2       1 <0>        -0.1382
     16 C12        -0.6510   -5.1567    3.4277 C.3       1 <0>        -0.1565
     17 C13        -2.5844   -4.0428    1.7105 C.3       1 <0>        -0.1174
     18 C14        -3.5002   -4.5257    2.8370 C.3       1 <0>        -0.1332
     19 C15        -4.5725   -5.4524    2.2606 C.3       1 <0>         0.1106
     20 C16        -5.5598   -5.8405    3.3645 C.3       1 <0>        -0.1542
     21 C17        -6.6079   -6.8011    2.7937 C.3       1 <0>         0.1043
     22 H5         -7.3053   -7.0898    3.5800 H         1 <0>         0.0786
     23 C18        -5.8960   -8.0485    2.2548 C.3       1 <0>        -0.2056
     24 C19        -4.7960   -7.5998    1.3177 C.2       1 <0>         0.4949
     25 O1         -4.6752   -8.0915    0.2207 O.2       1 <0>        -0.4525
     26 O2         -3.9538   -6.6353    1.7425 O.3       1 <0>        -0.3658
     27 O3         -7.3200   -6.1583    1.7345 O.3       1 <0>        -0.5634
     28 O4         -2.1718   -3.0410   -0.2253 O.3       1 <0>        -0.3145
     29 C20        -2.5787   -3.4574   -1.4348 C.2       1 <0>         0.4800
     30 O5         -1.7910   -3.5201   -2.3487 O.2       1 <0>        -0.5043
     31 C21        -4.0182   -3.8468   -1.6526 C.3       1 <0>        -0.1728
     32 C22        -4.8676   -2.9408   -2.5463 C.3       1 <0>        -0.1477
     33 C23        -4.4197   -4.3130   -3.0535 C.3       1 <0>        -0.1452
     34 H6          2.1131    0.8993   -0.4469 H         1 <0>         0.0595
     35 H7          0.7703    0.8244   -1.6129 H         1 <0>         0.0582
     36 H8          0.4519    1.2540    0.0848 H         1 <0>         0.0575
     37 H9         -1.2305   -0.6112    0.2815 H         1 <0>         0.0763
     38 H10        -0.9432   -1.0088   -1.4323 H         1 <0>         0.0715
     39 H11         0.1250   -4.0070    1.2815 H         1 <0>         0.0844
     40 H12         0.4679   -3.0225    5.1426 H         1 <0>         0.1066
     41 H13         1.8592   -1.7204    3.7336 H         1 <0>         0.1183
     42 H14         1.9850   -0.4735    1.6609 H         1 <0>         0.1161
     43 H15         0.1234   -5.2527    2.6666 H         1 <0>         0.0554
     44 H16        -0.2866   -5.5654    4.3703 H         1 <0>         0.0535
     45 H17        -1.5393   -5.7045    3.1134 H         1 <0>         0.0765
     46 H18        -3.1733   -3.5009    0.9705 H         1 <0>         0.1079
     47 H19        -2.1069   -4.9008    1.2374 H         1 <0>         0.0673
     48 H20        -2.9113   -5.0675    3.5770 H         1 <0>         0.0877
     49 H21        -3.9777   -3.6676    3.3101 H         1 <0>         0.0853
     50 H22        -5.1046   -4.9393    1.4596 H         1 <0>         0.0828
     51 H23        -5.0228   -6.3293    4.1774 H         1 <0>         0.0952
     52 H24        -6.0542   -4.9451    3.7415 H         1 <0>         0.0977
     53 H25        -5.4661   -8.6126    3.0826 H         1 <0>         0.1176
     54 H26        -6.6074   -8.6728    1.7142 H         1 <0>         0.1069
     55 H27        -8.0008   -6.7106    1.3265 H         1 <0>         0.3859
     56 H28        -4.5104   -4.3215   -0.8039 H         1 <0>         0.1320
     57 H29        -5.9189   -2.8192   -2.2854 H         1 <0>         0.1108
     58 H30        -4.3852   -2.0631   -2.9766 H         1 <0>         0.1014
     59 H31        -3.6426   -4.3381   -3.8175 H         1 <0>         0.1098
     60 H32        -5.1763   -5.0942   -3.1263 H         1 <0>         0.1095
@<TRIPOS>BOND
     1    1    2 1
     2    1   34 1
     3    1   35 1
     4    1   36 1
     5    2    3 1
     6    2   15 1
     7    2    4 1
     8    4    5 1
     9    4   37 1
    10    4   38 1
    11    5    6 1
    12    5    7 1
    13    5   28 1
    14    7   14 1
    15    7    8 1
    16    7   39 1
    17    8    9 1
    18    8   10 1
    19    8   17 1
    20   10   11 1
    21   10   12 1
    22   10   16 1
    23   12   13 2
    24   12   40 1
    25   13   14 1
    26   13   41 1
    27   14   15 2
    28   15   42 1
    29   16   43 1
    30   16   44 1
    31   16   45 1
    32   17   18 1
    33   17   46 1
    34   17   47 1
    35   18   19 1
    36   18   48 1
    37   18   49 1
    38   19   26 1
    39   19   20 1
    40   19   50 1
    41   20   21 1
    42   20   51 1
    43   20   52 1
    44   21   22 1
    45   21   23 1
    46   21   27 1
    47   23   24 1
    48   23   53 1
    49   23   54 1
    50   24   25 2
    51   24   26 1
    52   27   55 1
    53   28   29 1
    54   29   30 2
    55   29   31 1
    56   31   33 1
    57   31   32 1
    58   31   56 1
    59   32   33 1
    60   32   57 1
    61   32   58 1
    62   33   59 1
    63   33   60 1
@<TRIPOS>MOLECULE
CHEMBL170906__1
   60    63     0     0     0
SMALL
USER_CHARGES

@<TRIPOS>ATOM
      1 C1          3.4243   -1.8862   -1.9585 C.3       1 <0>        -0.1424
      2 C2          2.5445   -1.8498   -0.7073 C.3       1 <0>        -0.0598
      3 H1          3.0846   -2.2793    0.1364 H         1 <0>         0.0843
      4 C3          1.2535   -2.6420   -0.9561 C.3       1 <0>        -0.1264
      5 C4          0.4137   -2.6058    0.3191 C.3       1 <0>         0.0903
      6 H2          0.9704   -3.0855    1.1241 H         1 <0>         0.0843
      7 C5          0.0738   -1.1928    0.7307 C.3       1 <0>        -0.0449
      8 C6         -1.3384   -0.7944    0.2960 C.3       1 <0>        -0.0619
      9 H3         -1.3728   -0.6957   -0.7890 H         1 <0>         0.0761
     10 C7         -1.6921    0.5450    0.9444 C.3       1 <0>        -0.0620
     11 H4         -2.6206    0.9160    0.5104 H         1 <0>         0.0842
     12 C8         -0.6131    1.5631    0.7342 C.2       1 <0>        -0.1394
     13 C9          0.6347    1.2655    0.4156 C.2       1 <0>        -0.1225
     14 C10         1.0288   -0.1502    0.2298 C.2       1 <0>        -0.0876
     15 C11         2.1588   -0.4269   -0.3956 C.2       1 <0>        -0.1363
     16 C12        -1.8925    0.3350    2.4466 C.3       1 <0>        -0.1635
     17 C13        -2.3349   -1.8648    0.7457 C.3       1 <0>        -0.1062
     18 C14        -3.7149   -1.2309    0.9320 C.3       1 <0>        -0.1450
     19 C15        -4.6670   -2.2550    1.5530 C.3       1 <0>         0.1094
     20 C16        -5.9682   -1.5603    1.9629 C.3       1 <0>        -0.1562
     21 C17        -6.9348   -2.5961    2.5461 C.3       1 <0>         0.1083
     22 H5         -6.4855   -3.0617    3.4232 H         1 <0>         0.0663
     23 C18        -7.2156   -3.6661    1.4833 C.3       1 <0>        -0.2060
     24 C19        -5.8901   -4.1813    0.9667 C.2       1 <0>         0.4903
     25 O1         -5.6718   -5.3672    0.8891 O.2       1 <0>        -0.4480
     26 O2         -4.9589   -3.2786    0.5950 O.3       1 <0>        -0.3607
     27 O3         -8.1566   -1.9548    2.9175 O.3       1 <0>        -0.5557
     28 O4         -0.7990   -3.3285    0.0979 O.3       1 <0>        -0.3183
     29 C20        -0.8252   -4.6107    0.4941 C.2       1 <0>         0.4819
     30 O5          0.1856   -5.1417    0.8894 O.2       1 <0>        -0.5038
     31 C21        -2.1153   -5.3881    0.4458 C.3       1 <0>        -0.1663
     32 C22        -2.0197   -6.9150    0.4258 C.3       1 <0>        -0.1481
     33 C23        -2.4288   -6.1576   -0.8390 C.3       1 <0>        -0.1462
     34 H6          4.3325   -1.3101   -1.7809 H         1 <0>         0.0596
     35 H7          3.6880   -2.9188   -2.1873 H         1 <0>         0.0585
     36 H8          2.8793   -1.4556   -2.7986 H         1 <0>         0.0578
     37 H9          0.6964   -2.1881   -1.7757 H         1 <0>         0.0767
     38 H10         1.4985   -3.6744   -1.2053 H         1 <0>         0.0721
     39 H11         0.0873   -1.1543    1.8200 H         1 <0>         0.0832
     40 H12        -0.8711    2.6054    0.8499 H         1 <0>         0.1073
     41 H13         1.3643    2.0519    0.2907 H         1 <0>         0.1187
     42 H14         2.8159    0.3785   -0.6889 H         1 <0>         0.1163
     43 H15        -0.9734   -0.0537    2.8849 H         1 <0>         0.0577
     44 H16        -2.1450    1.2859    2.9159 H         1 <0>         0.0572
     45 H17        -2.7019   -0.3767    2.6092 H         1 <0>         0.0771
     46 H18        -2.3937   -2.6473   -0.0109 H         1 <0>         0.1061
     47 H19        -2.0029   -2.2965    1.6899 H         1 <0>         0.0561
     48 H20        -3.6316   -0.3662    1.5905 H         1 <0>         0.1109
     49 H21        -4.1030   -0.9142   -0.0361 H         1 <0>         0.0800
     50 H22        -4.1996   -2.7009    2.4309 H         1 <0>         0.0768
     51 H23        -5.7536   -0.7999    2.7137 H         1 <0>         0.0977
     52 H24        -6.4212   -1.0917    1.0892 H         1 <0>         0.0917
     53 H25        -7.7805   -4.4857    1.9274 H         1 <0>         0.1062
     54 H26        -7.7848   -3.2288    0.6630 H         1 <0>         0.1173
     55 H27        -8.8159   -2.5531    3.2950 H         1 <0>         0.3854
     56 H28        -2.9528   -4.9429    0.9829 H         1 <0>         0.1386
     57 H29        -1.0237   -7.3573    0.4476 H         1 <0>         0.1052
     58 H30        -2.7944   -7.4747    0.9500 H         1 <0>         0.1090
     59 H31        -3.4726   -6.2189   -1.1469 H         1 <0>         0.1106
     60 H32        -1.7019   -6.1015   -1.6493 H         1 <0>         0.0981
@<TRIPOS>BOND
     1    1    2 1
     2    1   34 1
     3    1   35 1
     4    1   36 1
     5    2    3 1
     6    2   15 1
     7    2    4 1
     8    4    5 1
     9    4   37 1
    10    4   38 1
    11    5    6 1
    12    5    7 1
    13    5   28 1
    14    7   14 1
    15    7    8 1
    16    7   39 1
    17    8    9 1
    18    8   10 1
    19    8   17 1
    20   10   11 1
    21   10   12 1
    22   10   16 1
    23   12   13 2
    24   12   40 1
    25   13   14 1
    26   13   41 1
    27   14   15 2
    28   15   42 1
    29   16   43 1
    30   16   44 1
    31   16   45 1
    32   17   18 1
    33   17   46 1
    34   17   47 1
    35   18   19 1
    36   18   48 1
    37   18   49 1
    38   19   26 1
    39   19   20 1
    40   19   50 1
    41   20   21 1
    42   20   51 1
    43   20   52 1
    44   21   22 1
    45   21   23 1
    46   21   27 1
    47   23   24 1
    48   23   53 1
    49   23   54 1
    50   24   25 2
    51   24   26 1
    52   27   55 1
    53   28   29 1
    54   29   30 2
    55   29   31 1
    56   31   33 1
    57   31   32 1
    58   31   56 1
    59   32   33 1
    60   32   57 1
    61   32   58 1
    62   33   59 1
    63   33   60 1
@<TRIPOS>MOLECULE
CHEMBL170906__2
   60    63     0     0     0
SMALL
USER_CHARGES

@<TRIPOS>ATOM
      1 C1         -0.4064    1.5718   -0.0788 C.3       1 <0>        -0.1336
      2 C2         -0.3147    0.0446   -0.0859 C.3       1 <0>        -0.0566
      3 H1          0.0671   -0.2979   -1.0477 H         1 <0>         0.0782
      4 C3         -1.7020   -0.5610    0.1685 C.3       1 <0>        -0.1366
      5 C4         -2.2161   -0.0391    1.5086 C.3       1 <0>         0.1013
      6 H2         -3.1980   -0.4702    1.7040 H         1 <0>         0.0865
      7 C5         -1.2880   -0.3946    2.6460 C.3       1 <0>        -0.0441
      8 C6         -1.7750   -1.6222    3.4193 C.3       1 <0>        -0.0729
      9 H3         -2.8203   -1.4880    3.6976 H         1 <0>         0.0800
     10 C7         -0.9241   -1.7771    4.6808 C.3       1 <0>        -0.0575
     11 H4         -1.1731   -0.9772    5.3782 H         1 <0>         0.0831
     12 C8          0.5405   -1.7170    4.3707 C.2       1 <0>        -0.1389
     13 C9          1.0433   -1.1933    3.2661 C.2       1 <0>        -0.1267
     14 C10         0.1356   -0.6333    2.2382 C.2       1 <0>        -0.0689
     15 C11         0.5991   -0.4171    1.0197 C.2       1 <0>        -0.1461
     16 C12        -1.2398   -3.1243    5.3336 C.3       1 <0>        -0.1503
     17 C13        -1.6331   -2.8694    2.5444 C.3       1 <0>        -0.1169
     18 C14        -0.1499   -3.1959    2.3586 C.3       1 <0>        -0.1569
     19 C15        -0.0097   -4.5190    1.6032 C.3       1 <0>         0.1072
     20 C16         1.4691   -4.9067    1.5216 C.3       1 <0>        -0.1507
     21 C17         1.6092   -6.2103    0.7289 C.3       1 <0>         0.1039
     22 H5          2.6622   -6.4829    0.6576 H         1 <0>         0.0779
     23 C18         1.0367   -5.9989   -0.6785 C.3       1 <0>        -0.2051
     24 C19        -0.3573   -5.4265   -0.5430 C.2       1 <0>         0.4947
     25 O1         -1.2859   -5.9008   -1.1534 O.2       1 <0>        -0.4554
     26 O2         -0.5335   -4.3711    0.2787 O.3       1 <0>        -0.3652
     27 O3          0.8886   -7.2523    1.3899 O.3       1 <0>        -0.5635
     28 O4         -2.3388    1.3829    1.4377 O.3       1 <0>        -0.3330
     29 C20        -3.5169    1.8729    1.0209 C.2       1 <0>         0.4871
     30 O5         -4.4142    1.1195    0.7259 O.2       1 <0>        -0.5054
     31 C21        -3.7203    3.3627    0.9207 C.3       1 <0>        -0.1736
     32 C22        -4.6911    4.0112    1.9096 C.3       1 <0>        -0.1480
     33 C23        -5.0853    3.8586    0.4392 C.3       1 <0>        -0.1466
     34 H6          0.4443    1.9894   -0.6173 H         1 <0>         0.0477
     35 H7         -1.3317    1.8825   -0.5642 H         1 <0>         0.0498
     36 H8         -0.3973    1.9316    0.9500 H         1 <0>         0.0711
     37 H9         -2.3842   -0.2632   -0.6278 H         1 <0>         0.0708
     38 H10        -1.6277   -1.6479    0.2018 H         1 <0>         0.0935
     39 H11        -1.2930    0.4387    3.3486 H         1 <0>         0.0902
     40 H12         1.2286   -2.1277    5.0948 H         1 <0>         0.1116
     41 H13         2.1122   -1.1737    3.1136 H         1 <0>         0.1218
     42 H14         1.6473   -0.5740    0.8125 H         1 <0>         0.1134
     43 H15        -0.9266   -3.9313    4.6712 H         1 <0>         0.0629
     44 H16        -0.7055   -3.2034    6.2804 H         1 <0>         0.0573
     45 H17        -2.3122   -3.1981    5.5144 H         1 <0>         0.0591
     46 H18        -2.1326   -3.7099    3.0262 H         1 <0>         0.0657
     47 H19        -2.0891   -2.6847    1.5718 H         1 <0>         0.0735
     48 H20         0.3288   -2.3996    1.7887 H         1 <0>         0.1135
     49 H21         0.3281   -3.2822    3.3344 H         1 <0>         0.1058
     50 H22        -0.5624   -5.2981    2.1282 H         1 <0>         0.0781
     51 H23         2.0256   -4.1147    1.0204 H         1 <0>         0.0941
     52 H24         1.8639   -5.0486    2.5276 H         1 <0>         0.0953
     53 H25         1.6677   -5.3027   -1.2311 H         1 <0>         0.1172
     54 H26         0.9928   -6.9526   -1.2044 H         1 <0>         0.1062
     55 H27         0.9344   -8.1078    0.9415 H         1 <0>         0.3856
     56 H28        -2.8430    3.9382    0.6254 H         1 <0>         0.1356
     57 H29        -5.1826    3.3603    2.6327 H         1 <0>         0.1014
     58 H30        -4.4524    5.0136    2.2653 H         1 <0>         0.1114
     59 H31        -5.1060    4.7605   -0.1725 H         1 <0>         0.1104
     60 H32        -5.8362    3.1072    0.1948 H         1 <0>         0.1099
@<TRIPOS>BOND
     1    1    2 1
     2    1   34 1
     3    1   35 1
     4    1   36 1
     5    2    3 1
     6    2   15 1
     7    2    4 1
     8    4    5 1
     9    4   37 1
    10    4   38 1
    11    5    6 1
    12    5    7 1
    13    5   28 1
    14    7   14 1
    15    7    8 1
    16    7   39 1
    17    8    9 1
    18    8   10 1
    19    8   17 1
    20   10   11 1
    21   10   12 1
    22   10   16 1
    23   12   13 2
    24   12   40 1
    25   13   14 1
    26   13   41 1
    27   14   15 2
    28   15   42 1
    29   16   43 1
    30   16   44 1
    31   16   45 1
    32   17   18 1
    33   17   46 1
    34   17   47 1
    35   18   19 1
    36   18   48 1
    37   18   49 1
    38   19   26 1
    39   19   20 1
    40   19   50 1
    41   20   21 1
    42   20   51 1
    43   20   52 1
    44   21   22 1
    45   21   23 1
    46   21   27 1
    47   23   24 1
    48   23   53 1
    49   23   54 1
    50   24   25 2
    51   24   26 1
    52   27   55 1
    53   28   29 1
    54   29   30 2
    55   29   31 1
    56   31   33 1
    57   31   32 1
    58   31   56 1
    59   32   33 1
    60   32   57 1
    61   32   58 1
    62   33   59 1
    63   33   60 1
@<TRIPOS>MOLECULE
CHEMBL170906__3
   60    63     0     0     0
SMALL
USER_CHARGES

@<TRIPOS>ATOM
      1 C1         -0.4082    1.5709   -0.0808 C.3       1 <0>        -0.1340
      2 C2         -0.3161    0.0437   -0.0873 C.3       1 <0>        -0.0577
      3 H1          0.0655   -0.2991   -1.0490 H         1 <0>         0.0795
      4 C3         -1.7032   -0.5621    0.1677 C.3       1 <0>        -0.1356
      5 C4         -2.2171   -0.0397    1.5077 C.3       1 <0>         0.1006
      6 H2         -3.1989   -0.4710    1.7035 H         1 <0>         0.0875
      7 C5         -1.2887   -0.3946    2.6451 C.3       1 <0>        -0.0467
      8 C6         -1.7752   -1.6220    3.4190 C.3       1 <0>        -0.0715
      9 H3         -2.8205   -1.4879    3.6975 H         1 <0>         0.0808
     10 C7         -0.9240   -1.7761    4.6804 C.3       1 <0>        -0.0576
     11 H4         -1.1729   -0.9760    5.3775 H         1 <0>         0.0829
     12 C8          0.5406   -1.7158    4.3699 C.2       1 <0>        -0.1303
     13 C9          1.0429   -1.1924    3.2650 C.2       1 <0>        -0.1350
     14 C10         0.1349   -0.6331    2.2370 C.2       1 <0>        -0.0657
     15 C11         0.5981   -0.4173    1.0184 C.2       1 <0>        -0.1534
     16 C12        -1.2392   -3.1231    5.3339 C.3       1 <0>        -0.1526
     17 C13        -1.6332   -2.8695    2.5447 C.3       1 <0>        -0.1187
     18 C14        -0.1500   -3.1957    2.3587 C.3       1 <0>        -0.1541
     19 C15        -0.0097   -4.5188    1.6033 C.3       1 <0>         0.1055
     20 C16         1.4692   -4.7866    1.3116 C.3       1 <0>        -0.1519
     21 C17         1.6095   -6.1318    0.5920 C.3       1 <0>         0.1083
     22 H5          1.0585   -6.1021   -0.3480 H         1 <0>         0.0659
     23 C18         1.0363   -7.2362    1.4890 C.3       1 <0>        -0.2048
     24 C19        -0.3579   -6.8283    1.9123 C.2       1 <0>         0.4906
     25 O1         -1.2867   -7.5947    1.8133 O.2       1 <0>        -0.4506
     26 O2         -0.5341   -5.5842    2.4036 O.3       1 <0>        -0.3638
     27 O3          2.9897   -6.3928    0.3298 O.3       1 <0>        -0.5557
     28 O4         -2.3401    1.3822    1.4363 O.3       1 <0>        -0.3322
     29 C20        -3.5184    1.8717    1.0195 C.2       1 <0>         0.4877
     30 O5         -4.4157    1.1179    0.7251 O.2       1 <0>        -0.5059
     31 C21        -3.7222    3.3615    0.9188 C.3       1 <0>        -0.1741
     32 C22        -4.6929    4.0102    1.9076 C.3       1 <0>        -0.1478
     33 C23        -5.0874    3.8568    0.4374 C.3       1 <0>        -0.1465
     34 H6          0.4424    1.9885   -0.6195 H         1 <0>         0.0488
     35 H7         -1.3335    1.8811   -0.5663 H         1 <0>         0.0501
     36 H8         -0.3992    1.9311    0.9479 H         1 <0>         0.0716
     37 H9         -2.3857   -0.2648   -0.6285 H         1 <0>         0.0730
     38 H10        -1.6286   -1.6490    0.2015 H         1 <0>         0.0856
     39 H11        -1.2937    0.4390    3.3473 H         1 <0>         0.0919
     40 H12         1.2289   -2.1260    5.0940 H         1 <0>         0.1118
     41 H13         2.1119   -1.1727    3.1122 H         1 <0>         0.1227
     42 H14         1.6463   -0.5740    0.8109 H         1 <0>         0.1158
     43 H15        -0.9259   -3.9303    4.6718 H         1 <0>         0.0702
     44 H16        -0.7047   -3.2016    6.2806 H         1 <0>         0.0556
     45 H17        -2.3115   -3.1971    5.5148 H         1 <0>         0.0581
     46 H18        -2.1324   -3.7099    3.0269 H         1 <0>         0.0769
     47 H19        -2.0894   -2.6853    1.5720 H         1 <0>         0.0649
     48 H20         0.3285   -2.3994    1.7887 H         1 <0>         0.1220
     49 H21         0.3282   -3.2820    3.3344 H         1 <0>         0.1006
     50 H22        -0.5618   -4.4626    0.6652 H         1 <0>         0.0729
     51 H23         1.8646   -3.9924    0.6783 H         1 <0>         0.0968
     52 H24         2.0252   -4.8157    2.2487 H         1 <0>         0.0898
     53 H25         0.9924   -8.1739    0.9349 H         1 <0>         0.1060
     54 H26         1.6667   -7.3584    2.3698 H         1 <0>         0.1170
     55 H27         3.1521   -7.2305   -0.1251 H         1 <0>         0.3849
     56 H28        -2.8451    3.9370    0.6230 H         1 <0>         0.1359
     57 H29        -5.1841    3.3594    2.6311 H         1 <0>         0.1016
     58 H30        -4.4544    5.0127    2.2628 H         1 <0>         0.1117
     59 H31        -5.1085    4.7584   -0.1748 H         1 <0>         0.1106
     60 H32        -5.8382    3.1051    0.1935 H         1 <0>         0.1100
@<TRIPOS>BOND
     1    1    2 1
     2    1   34 1
     3    1   35 1
     4    1   36 1
     5    2    3 1
     6    2   15 1
     7    2    4 1
     8    4    5 1
     9    4   37 1
    10    4   38 1
    11    5    6 1
    12    5    7 1
    13    5   28 1
    14    7   14 1
    15    7    8 1
    16    7   39 1
    17    8    9 1
    18    8   10 1
    19    8   17 1
    20   10   11 1
    21   10   12 1
    22   10   16 1
    23   12   13 2
    24   12   40 1
    25   13   14 1
    26   13   41 1
    27   14   15 2
    28   15   42 1
    29   16   43 1
    30   16   44 1
    31   16   45 1
    32   17   18 1
    33   17   46 1
    34   17   47 1
    35   18   19 1
    36   18   48 1
    37   18   49 1
    38   19   26 1
    39   19   20 1
    40   19   50 1
    41   20   21 1
    42   20   51 1
    43   20   52 1
    44   21   22 1
    45   21   23 1
    46   21   27 1
    47   23   24 1
    48   23   53 1
    49   23   54 1
    50   24   25 2
    51   24   26 1
    52   27   55 1
    53   28   29 1
    54   29   30 2
    55   29   31 1
    56   31   33 1
    57   31   32 1
    58   31   56 1
    59   32   33 1
    60   32   57 1
    61   32   58 1
    62   33   59 1
    63   33   60 1
@<TRIPOS>MOLECULE
CHEMBL102168
   62    64     0     0     0
SMALL
USER_CHARGES

@<TRIPOS>ATOM
      1 C1          0.0034    1.5405    0.0647 C.3       1 <0>        -0.1415
      2 C2          0.0247    0.0108    0.0479 C.3       1 <0>        -0.0590
      3 C3          0.7530   -0.5028    1.2915 C.3       1 <0>        -0.1455
      4 C4         -1.3889   -0.5113    0.0421 C.ar      1 <0>        -0.0969
      5 C5         -2.2447   -0.1952    1.0798 C.ar      1 <0>        -0.0458
      6 C6         -3.5497   -0.6733    1.0808 C.ar      1 <0>        -0.1512
      7 C7         -3.9988   -1.4706    0.0382 C.ar      1 <0>        -0.0439
      8 C8         -3.1394   -1.7907   -1.0091 C.ar      1 <0>        -0.0701
      9 C9         -1.8293   -1.3024   -1.0063 C.ar      1 <0>         0.1472
     10 O1         -0.9870   -1.6078   -2.0287 O.3       1 <0>        -0.3166
     11 C10        -0.2035   -2.7949   -1.8912 C.3       1 <0>         0.0382
     12 C11         0.6763   -2.9717   -3.1304 C.3       1 <0>         0.1199
     13 C12         1.4219   -4.3047   -3.0405 C.3       1 <0>        -0.1847
     14 C13         2.2042   -4.5397   -4.3342 C.3       1 <0>         0.1403
     15 H1          1.5261   -4.4776   -5.1853 H         1 <0>         0.0947
     16 C14         2.8486   -5.9269   -4.2957 C.3       1 <0>        -0.2191
     17 C15         3.5158   -6.2077   -5.6175 C.2       1 <0>         0.4907
     18 O2          3.4794   -5.3755   -6.5077 O.co2     1 <0>        -0.6801
     19 O3          4.0921   -7.2671   -5.7966 O.co2     1 <0>        -0.7122
     20 O4          3.2222   -3.5451   -4.4626 O.3       1 <0>        -0.5265
     21 O5          1.6206   -1.9016   -3.2008 O.3       1 <0>        -0.5304
     22 C16        -3.6134   -2.6432   -2.1266 C.ar      1 <0>        -0.0633
     23 C17        -3.4116   -2.2419   -3.4460 C.ar      1 <0>        -0.0554
     24 C18        -3.8538   -3.0383   -4.4824 C.ar      1 <0>        -0.1522
     25 C19        -4.4980   -4.2350   -4.2130 C.ar      1 <0>         0.1067
     26 C20        -4.7007   -4.6377   -2.9030 C.ar      1 <0>        -0.1554
     27 C21        -4.2568   -3.8505   -1.8604 C.ar      1 <0>        -0.0777
     28 F1         -4.9300   -5.0112   -5.2308 F         1 <0>        -0.1372
     29 S1         -4.6349   -0.2669    2.4082 S.3       1 <0>         0.0044
     30 C22        -5.3025    1.2978    1.9492 C.ar      1 <0>        -0.1103
     31 C23        -6.1204    1.9916    2.8325 C.ar      1 <0>        -0.0714
     32 C24        -6.6420    3.2179    2.4705 C.ar      1 <0>        -0.1362
     33 C25        -6.3509    3.7561    1.2282 C.ar      1 <0>         0.0931
     34 C26        -5.5359    3.0666    0.3460 C.ar      1 <0>        -0.1338
     35 C27        -5.0072    1.8426    0.7055 C.ar      1 <0>        -0.0931
     36 F2         -6.8631    4.9556    0.8761 F         1 <0>        -0.1386
     37 H2          1.0259    1.9181    0.0688 H         1 <0>         0.0621
     38 H3         -0.5155    1.9064   -0.8213 H         1 <0>         0.0573
     39 H4         -0.5155    1.8868    0.9585 H         1 <0>         0.0533
     40 H5          0.5436   -0.3356   -0.8460 H         1 <0>         0.0943
     41 H6          0.2342   -0.1565    2.1854 H         1 <0>         0.0561
     42 H7          0.7682   -1.5927    1.2795 H         1 <0>         0.0538
     43 H8          1.7755   -0.1252    1.2957 H         1 <0>         0.0631
     44 H9         -1.8982    0.4253    1.8931 H         1 <0>         0.1364
     45 H10        -5.0128   -1.8424    0.0392 H         1 <0>         0.1387
     46 H11         0.4277   -2.7132   -1.0062 H         1 <0>         0.0566
     47 H12        -0.8636   -3.6561   -1.7884 H         1 <0>         0.0613
     48 H13         0.0515   -2.9644   -4.0235 H         1 <0>         0.1063
     49 H14         2.1127   -4.2785   -2.1978 H         1 <0>         0.0660
     50 H15         0.7049   -5.1132   -2.8975 H         1 <0>         0.0764
     51 H16         3.5918   -5.9603   -3.4992 H         1 <0>         0.0570
     52 H17         2.0817   -6.6787   -4.1089 H         1 <0>         0.0614
     53 H18         3.8628   -3.5422   -3.7383 H         1 <0>         0.3504
     54 H19         2.2112   -1.8472   -2.4370 H         1 <0>         0.3634
     55 H20        -2.9102   -1.3089   -3.6569 H         1 <0>         0.1384
     56 H21        -3.6978   -2.7282   -5.5050 H         1 <0>         0.1400
     57 H22        -5.2037   -5.5712   -2.6976 H         1 <0>         0.1375
     58 H23        -4.4114   -4.1673   -0.8396 H         1 <0>         0.1326
     59 H24        -6.3483    1.5720    3.8012 H         1 <0>         0.1384
     60 H25        -7.2778    3.7576    3.1568 H         1 <0>         0.1406
     61 H26        -5.3103    3.4884   -0.6223 H         1 <0>         0.1383
     62 H27        -4.3681    1.3072    0.0190 H         1 <0>         0.1333
@<TRIPOS>BOND
     1    1    2 1
     2    1   37 1
     3    1   38 1
     4    1   39 1
     5    2    3 1
     6    2    4 1
     7    2   40 1
     8    3   41 1
     9    3   42 1
    10    3   43 1
    11    4    9 ar
    12    4    5 ar
    13    5    6 ar
    14    5   44 1
    15    6    7 ar
    16    6   29 1
    17    7    8 ar
    18    7   45 1
    19    8    9 ar
    20    8   22 1
    21    9   10 1
    22   10   11 1
    23   11   12 1
    24   11   46 1
    25   11   47 1
    26   12   13 1
    27   12   21 1
    28   12   48 1
    29   13   14 1
    30   13   49 1
    31   13   50 1
    32   14   15 1
    33   14   16 1
    34   14   20 1
    35   16   17 1
    36   16   51 1
    37   16   52 1
    38   17   18 2
    39   17   19 1
    40   20   53 1
    41   21   54 1
    42   22   27 ar
    43   22   23 ar
    44   23   24 ar
    45   23   55 1
    46   24   25 ar
    47   24   56 1
    48   25   26 ar
    49   25   28 1
    50   26   27 ar
    51   26   57 1
    52   27   58 1
    53   29   30 1
    54   30   35 ar
    55   30   31 ar
    56   31   32 ar
    57   31   59 1
    58   32   33 ar
    59   32   60 1
    60   33   34 ar
    61   33   36 1
    62   34   35 ar
    63   34   61 1
    64   35   62 1
@<TRIPOS>MOLECULE
CHEMBL102168__1
   62    64     0     0     0
SMALL
USER_CHARGES

@<TRIPOS>ATOM
      1 C1          0.0034    1.5405    0.0647 C.3       1 <0>        -0.1423
      2 C2          0.0247    0.0108    0.0479 C.3       1 <0>        -0.0589
      3 C3          0.7530   -0.5028    1.2915 C.3       1 <0>        -0.1456
      4 C4         -1.3889   -0.5113    0.0421 C.ar      1 <0>        -0.0976
      5 C5         -2.2447   -0.1952    1.0798 C.ar      1 <0>        -0.0455
      6 C6         -3.5497   -0.6733    1.0808 C.ar      1 <0>        -0.1511
      7 C7         -3.9988   -1.4706    0.0382 C.ar      1 <0>        -0.0443
      8 C8         -3.1394   -1.7907   -1.0091 C.ar      1 <0>        -0.0693
      9 C9         -1.8293   -1.3024   -1.0063 C.ar      1 <0>         0.1469
     10 O1         -0.9870   -1.6078   -2.0287 O.3       1 <0>        -0.3166
     11 C10        -0.2035   -2.7949   -1.8912 C.3       1 <0>         0.0388
     12 C11         0.6763   -2.9717   -3.1304 C.3       1 <0>         0.1175
     13 C12         1.6043   -4.1715   -2.9300 C.3       1 <0>        -0.1839
     14 C13         2.5686   -4.2737   -4.1135 C.3       1 <0>         0.1380
     15 H1          2.0003   -4.3142   -5.0428 H         1 <0>         0.1042
     16 C14         3.4123   -5.5426   -3.9759 C.3       1 <0>        -0.2184
     17 C15         4.2744   -5.7079   -5.2008 C.2       1 <0>         0.4906
     18 O2          4.2192   -4.8869   -6.1005 O.co2     1 <0>        -0.6798
     19 O3          5.0272   -6.6627   -5.2922 O.co2     1 <0>        -0.7121
     20 O4          3.4263   -3.1308   -4.1291 O.3       1 <0>        -0.5399
     21 O5         -0.1510   -3.1952   -4.2739 O.3       1 <0>        -0.5410
     22 C16        -3.6134   -2.6432   -2.1266 C.ar      1 <0>        -0.0647
     23 C17        -3.4116   -2.2419   -3.4460 C.ar      1 <0>        -0.0465
     24 C18        -3.8538   -3.0383   -4.4824 C.ar      1 <0>        -0.1492
     25 C19        -4.4980   -4.2350   -4.2130 C.ar      1 <0>         0.1051
     26 C20        -4.7007   -4.6377   -2.9030 C.ar      1 <0>        -0.1576
     27 C21        -4.2568   -3.8505   -1.8604 C.ar      1 <0>        -0.0787
     28 F1         -4.9300   -5.0112   -5.2308 F         1 <0>        -0.1383
     29 S1         -4.6349   -0.2669    2.4082 S.3       1 <0>         0.0044
     30 C22        -5.3025    1.2978    1.9492 C.ar      1 <0>        -0.1103
     31 C23        -6.1204    1.9916    2.8325 C.ar      1 <0>        -0.0713
     32 C24        -6.6420    3.2179    2.4705 C.ar      1 <0>        -0.1362
     33 C25        -6.3509    3.7561    1.2282 C.ar      1 <0>         0.0931
     34 C26        -5.5359    3.0666    0.3460 C.ar      1 <0>        -0.1338
     35 C27        -5.0072    1.8426    0.7055 C.ar      1 <0>        -0.0931
     36 F2         -6.8631    4.9556    0.8761 F         1 <0>        -0.1386
     37 H2          1.0259    1.9181    0.0688 H         1 <0>         0.0625
     38 H3         -0.5155    1.9064   -0.8213 H         1 <0>         0.0574
     39 H4         -0.5155    1.8868    0.9585 H         1 <0>         0.0542
     40 H5          0.5436   -0.3356   -0.8460 H         1 <0>         0.0911
     41 H6          0.2342   -0.1565    2.1854 H         1 <0>         0.0566
     42 H7          0.7682   -1.5927    1.2795 H         1 <0>         0.0545
     43 H8          1.7755   -0.1252    1.2957 H         1 <0>         0.0634
     44 H9         -1.8982    0.4253    1.8931 H         1 <0>         0.1365
     45 H10        -5.0128   -1.8424    0.0392 H         1 <0>         0.1385
     46 H11         0.4277   -2.7132   -1.0062 H         1 <0>         0.0624
     47 H12        -0.8636   -3.6561   -1.7884 H         1 <0>         0.0557
     48 H13         1.2729   -2.0725   -3.2837 H         1 <0>         0.1150
     49 H14         2.1722   -4.0417   -2.0088 H         1 <0>         0.0710
     50 H15         1.0106   -5.0833   -2.8654 H         1 <0>         0.0718
     51 H16         4.0466   -5.4632   -3.0931 H         1 <0>         0.0569
     52 H17         2.7553   -6.4065   -3.8747 H         1 <0>         0.0621
     53 H18         3.9634   -3.0312   -3.3312 H         1 <0>         0.3539
     54 H19        -0.7108   -3.9809   -4.2069 H         1 <0>         0.3662
     55 H20        -2.9102   -1.3089   -3.6569 H         1 <0>         0.1383
     56 H21        -3.6978   -2.7282   -5.5050 H         1 <0>         0.1398
     57 H22        -5.2037   -5.5712   -2.6976 H         1 <0>         0.1362
     58 H23        -4.4114   -4.1673   -0.8396 H         1 <0>         0.1313
     59 H24        -6.3483    1.5720    3.8012 H         1 <0>         0.1384
     60 H25        -7.2778    3.7576    3.1568 H         1 <0>         0.1406
     61 H26        -5.3103    3.4884   -0.6223 H         1 <0>         0.1383
     62 H27        -4.3681    1.3072    0.0190 H         1 <0>         0.1333
@<TRIPOS>BOND
     1    1    2 1
     2    1   37 1
     3    1   38 1
     4    1   39 1
     5    2    3 1
     6    2    4 1
     7    2   40 1
     8    3   41 1
     9    3   42 1
    10    3   43 1
    11    4    9 ar
    12    4    5 ar
    13    5    6 ar
    14    5   44 1
    15    6    7 ar
    16    6   29 1
    17    7    8 ar
    18    7   45 1
    19    8    9 ar
    20    8   22 1
    21    9   10 1
    22   10   11 1
    23   11   12 1
    24   11   46 1
    25   11   47 1
    26   12   13 1
    27   12   21 1
    28   12   48 1
    29   13   14 1
    30   13   49 1
    31   13   50 1
    32   14   15 1
    33   14   16 1
    34   14   20 1
    35   16   17 1
    36   16   51 1
    37   16   52 1
    38   17   18 2
    39   17   19 1
    40   20   53 1
    41   21   54 1
    42   22   27 ar
    43   22   23 ar
    44   23   24 ar
    45   23   55 1
    46   24   25 ar
    47   24   56 1
    48   25   26 ar
    49   25   28 1
    50   26   27 ar
    51   26   57 1
    52   27   58 1
    53   29   30 1
    54   30   35 ar
    55   30   31 ar
    56   31   32 ar
    57   31   59 1
    58   32   33 ar
    59   32   60 1
    60   33   34 ar
    61   33   36 1
    62   34   35 ar
    63   34   61 1
    64   35   62 1
@<TRIPOS>MOLECULE
CHEMBL398906
   73    75     0     0     0
SMALL
USER_CHARGES

@<TRIPOS>ATOM
      1 C1         -2.3436    1.8886   -1.0899 C.3       1 <0>        -0.1591
      2 C2         -1.1667    1.0233   -0.6347 C.3       1 <0>         0.1777
      3 H1         -1.5266    0.2458    0.0392 H         1 <0>         0.1104
      4 C3         -0.1590    1.8835    0.0835 C.ar      1 <0>        -0.0952
      5 C4          0.4843    2.9042   -0.5912 C.ar      1 <0>        -0.1110
      6 C5          1.4086    3.6932    0.0675 C.ar      1 <0>        -0.1214
      7 C6          1.6893    3.4618    1.4011 C.ar      1 <0>        -0.1187
      8 C7          1.0453    2.4417    2.0761 C.ar      1 <0>        -0.1196
      9 C8          0.1179    1.6555    1.4185 C.ar      1 <0>        -0.1034
     10 N1         -0.5357    0.4037   -1.8026 N.am      1 <0>        -0.5959
     11 C9         -0.0951    1.2358   -2.9249 C.3       1 <0>         0.0756
     12 C10        -0.3605   -0.9320   -1.8445 C.2       1 <0>         0.6184
     13 O1         -0.6449   -1.6131   -0.8784 O.2       1 <0>        -0.5178
     14 C11         0.1769   -1.5682   -3.0638 C.2       1 <0>         0.0113
     15 C12        -0.5620   -2.2917   -4.0300 C.2       1 <0>        -0.1468
     16 C13         0.3411   -2.6835   -4.9591 C.2       1 <0>         0.0372
     17 N2          1.5528   -2.2150   -4.5617 N.pl3     1 <0>        -0.2410
     18 N3          1.4346   -1.5643   -3.4602 N.2       1 <0>        -0.2577
     19 C14         2.7553   -2.4080   -5.2554 C.ar      1 <0>         0.1208
     20 C15         2.8020   -2.2223   -6.6307 C.ar      1 <0>        -0.0801
     21 C16         3.9877   -2.4130   -7.3123 C.ar      1 <0>        -0.1310
     22 C17         5.1297   -2.7896   -6.6252 C.ar      1 <0>         0.1114
     23 C18         5.0851   -2.9753   -5.2535 C.ar      1 <0>        -0.1386
     24 C19         3.9027   -2.7796   -4.5674 C.ar      1 <0>        -0.0710
     25 F1          6.2886   -2.9766   -7.2940 F         1 <0>        -0.1314
     26 C20         0.0561   -3.4886   -6.2007 C.3       1 <0>        -0.0574
     27 C21         0.0662   -4.9791   -5.8555 C.3       1 <0>        -0.1450
     28 C22        -0.1017   -5.8002   -7.1356 C.3       1 <0>         0.1147
     29 H2         -1.0044   -5.4807   -7.6564 H         1 <0>         0.0993
     30 C23        -0.2167   -7.2835   -6.7786 C.3       1 <0>        -0.1872
     31 C24        -0.5089   -8.0915   -8.0446 C.3       1 <0>         0.1381
     32 H3         -1.3974   -7.6920   -8.5336 H         1 <0>         0.0929
     33 C25        -0.7473   -9.5560   -7.6712 C.3       1 <0>        -0.2198
     34 C26        -1.1553  -10.3276   -8.8996 C.2       1 <0>         0.4906
     35 O2         -1.2469   -9.7590   -9.9742 O.co2     1 <0>        -0.6814
     36 O3         -1.3937  -11.5206   -8.8190 O.co2     1 <0>        -0.7131
     37 O4          0.6055   -8.0022   -8.9346 O.3       1 <0>        -0.5281
     38 O5          1.0324   -5.6004   -7.9818 O.3       1 <0>        -0.5410
     39 C27        -2.0434   -2.5683   -4.0253 C.3       1 <0>        -0.0213
     40 C28        -2.4254   -3.2783   -2.7250 C.3       1 <0>        -0.1505
     41 C29        -2.8091   -1.2478   -4.1293 C.3       1 <0>        -0.1436
     42 H4         -1.9836    2.6661   -1.7637 H         1 <0>         0.0628
     43 H5         -3.0724    1.2665   -1.6093 H         1 <0>         0.0670
     44 H6         -2.8130    2.3497   -0.2209 H         1 <0>         0.0734
     45 H7          0.2650    3.0849   -1.6332 H         1 <0>         0.1237
     46 H8          1.9118    4.4901   -0.4599 H         1 <0>         0.1212
     47 H9          2.4120    4.0778    1.9156 H         1 <0>         0.1206
     48 H10         1.2649    2.2608    3.1180 H         1 <0>         0.1224
     49 H11        -0.3880    0.8609    1.9469 H         1 <0>         0.1237
     50 H12         0.9352    1.5514   -2.7607 H         1 <0>         0.0609
     51 H13        -0.1562    0.6613   -3.8492 H         1 <0>         0.0721
     52 H14        -0.7365    2.1139   -2.9999 H         1 <0>         0.0764
     53 H15         1.9116   -1.9292   -7.1669 H         1 <0>         0.1466
     54 H16         4.0245   -2.2686   -8.3820 H         1 <0>         0.1508
     55 H17         5.9767   -3.2691   -4.7194 H         1 <0>         0.1469
     56 H18         3.8694   -2.9202   -3.4971 H         1 <0>         0.1423
     57 H19        -0.9220   -3.2136   -6.5954 H         1 <0>         0.0929
     58 H20         0.8209   -3.2840   -6.9499 H         1 <0>         0.0904
     59 H21         1.0132   -5.2357   -5.3808 H         1 <0>         0.0621
     60 H22        -0.7541   -5.1994   -5.1724 H         1 <0>         0.0764
     61 H23         0.7200   -7.6248   -6.3379 H         1 <0>         0.0615
     62 H24        -1.0271   -7.4233   -6.0632 H         1 <0>         0.0744
     63 H25         0.1699   -9.9808   -7.2632 H         1 <0>         0.0558
     64 H26        -1.5391   -9.6164   -6.9246 H         1 <0>         0.0610
     65 H27         1.4324   -8.3405   -8.5646 H         1 <0>         0.3497
     66 H28         1.8726   -5.8637   -7.5821 H         1 <0>         0.3638
     67 H29        -2.2971   -3.2033   -4.8741 H         1 <0>         0.0827
     68 H30        -2.2729   -2.6024   -1.8836 H         1 <0>         0.0686
     69 H31        -3.4734   -3.5750   -2.7674 H         1 <0>         0.0564
     70 H32        -1.8021   -4.1634   -2.5976 H         1 <0>         0.0548
     71 H33        -2.5369   -0.7420   -5.0557 H         1 <0>         0.0548
     72 H34        -3.8806   -1.4479   -4.1259 H         1 <0>         0.0609
     73 H35        -2.5554   -0.6128   -3.2805 H         1 <0>         0.0526
@<TRIPOS>BOND
     1    1    2 1
     2    1   42 1
     3    1   43 1
     4    1   44 1
     5    2    3 1
     6    2    4 1
     7    2   10 1
     8    4    9 ar
     9    4    5 ar
    10    5    6 ar
    11    5   45 1
    12    6    7 ar
    13    6   46 1
    14    7    8 ar
    15    7   47 1
    16    8    9 ar
    17    8   48 1
    18    9   49 1
    19   10   11 1
    20   10   12 am
    21   11   50 1
    22   11   51 1
    23   11   52 1
    24   12   13 2
    25   12   14 1
    26   14   18 2
    27   14   15 1
    28   15   16 2
    29   15   39 1
    30   16   17 1
    31   16   26 1
    32   17   18 1
    33   17   19 1
    34   19   24 ar
    35   19   20 ar
    36   20   21 ar
    37   20   53 1
    38   21   22 ar
    39   21   54 1
    40   22   23 ar
    41   22   25 1
    42   23   24 ar
    43   23   55 1
    44   24   56 1
    45   26   27 1
    46   26   57 1
    47   26   58 1
    48   27   28 1
    49   27   59 1
    50   27   60 1
    51   28   29 1
    52   28   30 1
    53   28   38 1
    54   30   31 1
    55   30   61 1
    56   30   62 1
    57   31   32 1
    58   31   33 1
    59   31   37 1
    60   33   34 1
    61   33   63 1
    62   33   64 1
    63   34   35 2
    64   34   36 1
    65   37   65 1
    66   38   66 1
    67   39   40 1
    68   39   41 1
    69   39   67 1
    70   40   68 1
    71   40   69 1
    72   40   70 1
    73   41   71 1
    74   41   72 1
    75   41   73 1
@<TRIPOS>MOLECULE
CHEMBL100165
   60    61     0     0     0
SMALL
USER_CHARGES

@<TRIPOS>ATOM
      1 C1         -0.1421    1.6696    0.0817 C.3       1 <0>        -0.1451
      2 C2         -0.0613    0.1433    0.1513 C.3       1 <0>        -0.0545
      3 C3          0.6170   -0.2724    1.4582 C.3       1 <0>        -0.1449
      4 C4         -1.4514   -0.4362    0.1004 C.ar      1 <0>        -0.0805
      5 C5         -2.3727   -0.1002    1.0721 C.ar      1 <0>        -0.0930
      6 C6         -3.6576   -0.6351    1.0261 C.ar      1 <0>        -0.0633
      7 C7         -4.0069   -1.5110   -0.0065 C.ar      1 <0>         0.1091
      8 C8         -3.0726   -1.8396   -0.9751 C.ar      1 <0>        -0.0847
      9 C9         -1.8016   -1.2985   -0.9232 C.ar      1 <0>        -0.0983
     10 C10        -3.4440   -2.7834   -2.0898 C.3       1 <0>        -0.0604
     11 C11        -3.2841   -2.0721   -3.4349 C.3       1 <0>        -0.1394
     12 C12        -2.5272   -4.0076   -2.0481 C.3       1 <0>        -0.1431
     13 O1         -5.2579   -2.0381   -0.0594 O.3       1 <0>        -0.3160
     14 C13        -5.4784   -3.2580    0.6513 C.3       1 <0>         0.0384
     15 C14        -6.9066   -3.7449    0.3978 C.3       1 <0>         0.1196
     16 C15        -7.1836   -4.9814    1.2553 C.3       1 <0>        -0.1844
     17 C16        -8.6483   -5.3943    1.0968 C.3       1 <0>         0.1401
     18 H1         -9.2922   -4.5475    1.3344 H         1 <0>         0.0945
     19 C17        -8.9574   -6.5526    2.0475 C.3       1 <0>        -0.2190
     20 C18       -10.4273   -6.8782    1.9811 C.2       1 <0>         0.4908
     21 O2        -11.1597   -6.2428    1.2420 O.co2     1 <0>        -0.6801
     22 O3        -10.8841   -7.7771    2.6666 O.co2     1 <0>        -0.7128
     23 O4         -8.8834   -5.8082   -0.2506 O.3       1 <0>        -0.5265
     24 O5         -7.0578   -4.0794   -0.9832 O.3       1 <0>        -0.5308
     25 C19        -4.6511   -0.2778    2.0679 C.ar      1 <0>        -0.0563
     26 C20        -5.8834    0.2613    1.7030 C.ar      1 <0>        -0.0576
     27 C21        -6.8045    0.5922    2.6755 C.ar      1 <0>        -0.1520
     28 C22        -6.5059    0.3894    4.0131 C.ar      1 <0>         0.1021
     29 C23        -5.2821   -0.1463    4.3805 C.ar      1 <0>        -0.1556
     30 C24        -4.3573   -0.4855    3.4144 C.ar      1 <0>        -0.0804
     31 F1         -7.4106    0.7153    4.9621 F         1 <0>        -0.1389
     32 H2          0.8634    2.0887    0.1185 H         1 <0>         0.0574
     33 H3         -0.6253    1.9658   -0.8493 H         1 <0>         0.0565
     34 H4         -0.7220    2.0416    0.9264 H         1 <0>         0.0569
     35 H5          0.5186   -0.2287   -0.6934 H         1 <0>         0.0772
     36 H6          0.0372    0.0996    2.3028 H         1 <0>         0.0567
     37 H7          0.6746   -1.3598    1.5077 H         1 <0>         0.0561
     38 H8          1.6226    0.1467    1.4950 H         1 <0>         0.0575
     39 H9         -2.0970    0.5765    1.8674 H         1 <0>         0.1251
     40 H10        -1.0773   -1.5536   -1.6826 H         1 <0>         0.1241
     41 H11        -4.4796   -3.1007   -1.9673 H         1 <0>         0.0924
     42 H12        -2.2486   -1.7548   -3.5573 H         1 <0>         0.0523
     43 H13        -3.5527   -2.7547   -4.2411 H         1 <0>         0.0590
     44 H14        -3.9373   -1.1999   -3.4645 H         1 <0>         0.0566
     45 H15        -2.6411   -4.5144   -1.0898 H         1 <0>         0.0521
     46 H16        -2.7958   -4.6903   -2.8543 H         1 <0>         0.0603
     47 H17        -1.4916   -3.6903   -2.1705 H         1 <0>         0.0542
     48 H18        -4.7709   -4.0122    0.3068 H         1 <0>         0.0527
     49 H19        -5.3367   -3.0875    1.7185 H         1 <0>         0.0578
     50 H20        -7.6114   -2.9558    0.6598 H         1 <0>         0.1052
     51 H21        -6.5387   -5.7990    0.9330 H         1 <0>         0.0652
     52 H22        -6.9823   -4.7507    2.3014 H         1 <0>         0.0758
     53 H23        -8.3777   -7.4278    1.7543 H         1 <0>         0.0567
     54 H24        -8.6941   -6.2669    3.0659 H         1 <0>         0.0613
     55 H25        -8.3432   -6.5596   -0.5312 H         1 <0>         0.3501
     56 H26        -6.4605   -4.7767   -1.2867 H         1 <0>         0.3625
     57 H27        -6.1169    0.4201    0.6606 H         1 <0>         0.1362
     58 H28        -7.7596    1.0104    2.3936 H         1 <0>         0.1384
     59 H29        -5.0535   -0.3027    5.4244 H         1 <0>         0.1359
     60 H30        -3.4054   -0.9075    3.7014 H         1 <0>         0.1309
@<TRIPOS>BOND
     1    1    2 1
     2    1   32 1
     3    1   33 1
     4    1   34 1
     5    2    3 1
     6    2    4 1
     7    2   35 1
     8    3   36 1
     9    3   37 1
    10    3   38 1
    11    4    9 ar
    12    4    5 ar
    13    5    6 ar
    14    5   39 1
    15    6    7 ar
    16    6   25 1
    17    7    8 ar
    18    7   13 1
    19    8    9 ar
    20    8   10 1
    21    9   40 1
    22   10   11 1
    23   10   12 1
    24   10   41 1
    25   11   42 1
    26   11   43 1
    27   11   44 1
    28   12   45 1
    29   12   46 1
    30   12   47 1
    31   13   14 1
    32   14   15 1
    33   14   48 1
    34   14   49 1
    35   15   16 1
    36   15   24 1
    37   15   50 1
    38   16   17 1
    39   16   51 1
    40   16   52 1
    41   17   18 1
    42   17   19 1
    43   17   23 1
    44   19   20 1
    45   19   53 1
    46   19   54 1
    47   20   21 2
    48   20   22 1
    49   23   55 1
    50   24   56 1
    51   25   30 ar
    52   25   26 ar
    53   26   27 ar
    54   26   57 1
    55   27   28 ar
    56   27   58 1
    57   28   29 ar
    58   28   31 1
    59   29   30 ar
    60   29   59 1
    61   30   60 1
@<TRIPOS>MOLECULE
CHEMBL100165__1
   60    61     0     0     0
SMALL
USER_CHARGES

@<TRIPOS>ATOM
      1 C1         -0.0480    1.5446    0.0050 C.3       1 <0>        -0.1450
      2 C2         -0.0038    0.0160    0.0552 C.3       1 <0>        -0.0546
      3 C3          0.6975   -0.4320    1.3391 C.3       1 <0>        -0.1449
      4 C4         -1.4090   -0.5281    0.0343 C.ar      1 <0>        -0.0805
      5 C5         -2.2960   -0.1809    1.0336 C.ar      1 <0>        -0.0931
      6 C6         -3.5947   -0.6831    1.0153 C.ar      1 <0>        -0.0638
      7 C7         -3.9926   -1.5376   -0.0176 C.ar      1 <0>         0.1088
      8 C8         -3.0923   -1.8778   -1.0140 C.ar      1 <0>        -0.0848
      9 C9         -1.8072   -1.3692   -0.9893 C.ar      1 <0>        -0.0977
     10 C10        -3.5161   -2.7988   -2.1290 C.3       1 <0>        -0.0597
     11 C11        -3.3733   -2.0758   -3.4698 C.3       1 <0>        -0.1403
     12 C12        -2.6297   -4.0459   -2.1252 C.3       1 <0>        -0.1432
     13 O1         -5.2574   -2.0328   -0.0436 O.3       1 <0>        -0.3156
     14 C13        -5.4978   -3.2371    0.6871 C.3       1 <0>         0.0388
     15 C14        -6.9297   -3.7117    0.4314 C.3       1 <0>         0.1173
     16 C15        -7.1479   -5.0644    1.1122 C.3       1 <0>        -0.1838
     17 C16        -8.5365   -5.5975    0.7538 C.3       1 <0>         0.1378
     18 H1         -9.2895   -4.8536    1.0138 H         1 <0>         0.1040
     19 C17        -8.8039   -6.8874    1.5320 C.3       1 <0>        -0.2184
     20 C18       -10.2160   -7.3462    1.2739 C.2       1 <0>         0.4907
     21 O2        -10.9412   -6.7013    0.5359 O.co2     1 <0>        -0.6798
     22 O3        -10.6332   -8.3623    1.8030 O.co2     1 <0>        -0.7126
     23 O4         -8.5964   -5.8661   -0.6484 O.3       1 <0>        -0.5399
     24 O5         -7.8501   -2.7567    0.9632 O.3       1 <0>        -0.5422
     25 C19        -4.5516   -0.3136    2.0867 C.ar      1 <0>        -0.0567
     26 C20        -5.7786    0.2611    1.7604 C.ar      1 <0>        -0.0514
     27 C21        -6.6656    0.6032    2.7603 C.ar      1 <0>        -0.1501
     28 C22        -6.3379    0.3764    4.0872 C.ar      1 <0>         0.1007
     29 C23        -5.1192   -0.1946    4.4163 C.ar      1 <0>        -0.1572
     30 C24        -4.2286   -0.5452    3.4226 C.ar      1 <0>        -0.0812
     31 F1         -7.2092    0.7134    5.0632 F         1 <0>        -0.1397
     32 H2          0.9684    1.9381    0.0201 H         1 <0>         0.0574
     33 H3         -0.5476    1.8637   -0.9097 H         1 <0>         0.0565
     34 H4         -0.5962    1.9208    0.8687 H         1 <0>         0.0568
     35 H5          0.5444   -0.3602   -0.8085 H         1 <0>         0.0773
     36 H6          0.1492   -0.0557    2.2028 H         1 <0>         0.0566
     37 H7          0.7289   -1.5209    1.3750 H         1 <0>         0.0562
     38 H8          1.7138   -0.0384    1.3543 H         1 <0>         0.0575
     39 H9         -1.9828    0.4793    1.8289 H         1 <0>         0.1250
     40 H10        -1.1095   -1.6332   -1.7703 H         1 <0>         0.1244
     41 H11        -4.5558   -3.0917   -1.9831 H         1 <0>         0.0884
     42 H12        -2.3336   -1.7829   -3.6158 H         1 <0>         0.0533
     43 H13        -3.6799   -2.7419   -4.2763 H         1 <0>         0.0594
     44 H14        -4.0049   -1.1873   -3.4726 H         1 <0>         0.0567
     45 H15        -2.7314   -4.5610   -1.1700 H         1 <0>         0.0530
     46 H16        -2.9362   -4.7120   -2.9317 H         1 <0>         0.0607
     47 H17        -1.5899   -3.7530   -2.2712 H         1 <0>         0.0547
     48 H18        -4.7967   -4.0056    0.3616 H         1 <0>         0.0584
     49 H19        -5.3621   -3.0491    1.7521 H         1 <0>         0.0528
     50 H20        -7.0922   -3.8145   -0.6415 H         1 <0>         0.1134
     51 H21        -6.3892   -5.7690    0.7718 H         1 <0>         0.0703
     52 H22        -7.0728   -4.9435    2.1929 H         1 <0>         0.0713
     53 H23        -8.1061   -7.6591    1.2070 H         1 <0>         0.0567
     54 H24        -8.6710   -6.7029    2.5980 H         1 <0>         0.0620
     55 H25        -7.9524   -6.5208   -0.9514 H         1 <0>         0.3537
     56 H26        -7.7626   -2.6142    1.9156 H         1 <0>         0.3662
     57 H27        -6.0347    0.4386    0.7263 H         1 <0>         0.1362
     58 H28        -7.6165    1.0489    2.5083 H         1 <0>         0.1383
     59 H29        -4.8679   -0.3697    5.4520 H         1 <0>         0.1349
     60 H30        -3.2808   -0.9947    3.6797 H         1 <0>         0.1300
@<TRIPOS>BOND
     1    1    2 1
     2    1   32 1
     3    1   33 1
     4    1   34 1
     5    2    3 1
     6    2    4 1
     7    2   35 1
     8    3   36 1
     9    3   37 1
    10    3   38 1
    11    4    9 ar
    12    4    5 ar
    13    5    6 ar
    14    5   39 1
    15    6    7 ar
    16    6   25 1
    17    7    8 ar
    18    7   13 1
    19    8    9 ar
    20    8   10 1
    21    9   40 1
    22   10   11 1
    23   10   12 1
    24   10   41 1
    25   11   42 1
    26   11   43 1
    27   11   44 1
    28   12   45 1
    29   12   46 1
    30   12   47 1
    31   13   14 1
    32   14   15 1
    33   14   48 1
    34   14   49 1
    35   15   16 1
    36   15   24 1
    37   15   50 1
    38   16   17 1
    39   16   51 1
    40   16   52 1
    41   17   18 1
    42   17   19 1
    43   17   23 1
    44   19   20 1
    45   19   53 1
    46   19   54 1
    47   20   21 2
    48   20   22 1
    49   23   55 1
    50   24   56 1
    51   25   30 ar
    52   25   26 ar
    53   26   27 ar
    54   26   57 1
    55   27   28 ar
    56   27   58 1
    57   28   29 ar
    58   28   31 1
    59   29   30 ar
    60   29   59 1
    61   30   60 1
@<TRIPOS>MOLECULE
CHEMBL340139
   64    68     0     0     0
SMALL
USER_CHARGES

@<TRIPOS>ATOM
      1 C1         -0.1186    1.6051   -0.3101 C.3       1 <0>        -0.1444
      2 C2         -0.0403    0.1010   -0.0409 C.3       1 <0>        -0.0154
      3 C3          0.6439   -0.1411    1.3061 C.3       1 <0>        -0.1437
      4 C4         -1.4318   -0.4767   -0.0085 C.2       1 <0>         0.0940
      5 C5         -1.9174   -1.4769   -0.8514 C.2       1 <0>        -0.2002
      6 C6         -3.2167   -1.7221   -0.5058 C.2       1 <0>         0.1305
      7 N1         -3.5252   -0.8879    0.5310 N.pl3     1 <0>        -0.3191
      8 N2         -2.3846   -0.1274    0.8190 N.2       1 <0>        -0.2691
      9 C7         -4.7560   -0.8102    1.1890 C.ar      1 <0>         0.1600
     10 C8         -5.9253   -0.7095    0.4666 C.ar      1 <0>        -0.1085
     11 C9         -7.1559   -0.6311    1.1118 C.ar      1 <0>        -0.1025
     12 C10        -7.2396   -0.6515    2.4707 C.ar      1 <0>        -0.0983
     13 C11        -6.0709   -0.7536    3.2441 C.ar      1 <0>        -0.0404
     14 C12        -4.8128   -0.8400    2.5984 C.ar      1 <0>        -0.0445
     15 C13        -3.6466   -0.9470    3.3724 C.ar      1 <0>        -0.0936
     16 C14        -3.7390   -0.9724    4.7305 C.ar      1 <0>        -0.1152
     17 C15        -4.9764   -0.8937    5.3665 C.ar      1 <0>        -0.1078
     18 C16        -6.1268   -0.7766    4.6485 C.ar      1 <0>        -0.1085
     19 C17        -4.1212   -2.7074   -1.1374 C.ar      1 <0>        -0.0468
     20 C18        -4.3318   -2.6810   -2.5166 C.ar      1 <0>        -0.0571
     21 C19        -5.1758   -3.6023   -3.1007 C.ar      1 <0>        -0.1483
     22 C20        -5.8141   -4.5532   -2.3204 C.ar      1 <0>         0.1128
     23 C21        -5.6087   -4.5835   -0.9502 C.ar      1 <0>        -0.1505
     24 C22        -4.7622   -3.6703   -0.3570 C.ar      1 <0>        -0.0640
     25 F1         -6.6398   -5.4534   -2.8973 F         1 <0>        -0.1355
     26 C23        -1.1462   -2.1645   -1.9485 C.3       1 <0>        -0.0442
     27 C24        -0.4463   -3.4014   -1.3819 C.3       1 <0>        -0.1080
     28 C25         0.3367   -4.0994   -2.4957 C.3       1 <0>         0.1099
     29 H1          1.0197   -3.3887   -2.9609 H         1 <0>         0.0868
     30 C26         1.1353   -5.2649   -1.9060 C.3       1 <0>        -0.1535
     31 C27         1.8851   -5.9868   -3.0302 C.3       1 <0>         0.1045
     32 H2          2.4449   -6.8254   -2.6159 H         1 <0>         0.0790
     33 C28         0.8662   -6.5046   -4.0533 C.3       1 <0>        -0.2054
     34 C29        -0.0286   -5.3531   -4.4567 C.2       1 <0>         0.4962
     35 O1         -0.2473   -5.1141   -5.6207 O.2       1 <0>        -0.4534
     36 O2         -0.5753   -4.6001   -3.4797 O.3       1 <0>        -0.3655
     37 O3          2.7857   -5.0775   -3.6658 O.3       1 <0>        -0.5632
     38 H3          0.8879    2.0229   -0.3335 H         1 <0>         0.0629
     39 H4         -0.6060    1.7775   -1.2697 H         1 <0>         0.0558
     40 H5         -0.6935    2.0864    0.4811 H         1 <0>         0.0610
     41 H6          0.5346   -0.3803   -0.8321 H         1 <0>         0.0906
     42 H7          0.0690    0.3402    2.0973 H         1 <0>         0.0608
     43 H8          0.6997   -1.2126    1.4979 H         1 <0>         0.0551
     44 H9          1.6503    0.2768    1.2827 H         1 <0>         0.0633
     45 H10        -5.8862   -0.6909   -0.6125 H         1 <0>         0.1282
     46 H11        -8.0592   -0.5524    0.5250 H         1 <0>         0.1337
     47 H12        -8.2036   -0.5890    2.9537 H         1 <0>         0.1343
     48 H13        -2.6809   -1.0092    2.8929 H         1 <0>         0.1323
     49 H14        -2.8402   -1.0552    5.3236 H         1 <0>         0.1247
     50 H15        -5.0225   -0.9160    6.4453 H         1 <0>         0.1262
     51 H16        -7.0788   -0.7154    5.1549 H         1 <0>         0.1318
     52 H17        -3.8351   -1.9401   -3.1256 H         1 <0>         0.1387
     53 H18        -5.3398   -3.5825   -4.1680 H         1 <0>         0.1421
     54 H19        -6.1088   -5.3263   -0.3465 H         1 <0>         0.1395
     55 H20        -4.5994   -3.6976    0.7103 H         1 <0>         0.1290
     56 H21        -1.8317   -2.4658   -2.7406 H         1 <0>         0.0804
     57 H22        -0.4016   -1.4793   -2.3536 H         1 <0>         0.0755
     58 H23         0.2392   -3.1000   -0.5898 H         1 <0>         0.0875
     59 H24        -1.1909   -4.0866   -0.9768 H         1 <0>         0.0754
     60 H25         1.8510   -4.8837   -1.1777 H         1 <0>         0.0982
     61 H26         0.4545   -5.9617   -1.4171 H         1 <0>         0.0949
     62 H27         1.3882   -6.8887   -4.9297 H         1 <0>         0.1074
     63 H28         0.2662   -7.2969   -3.6058 H         1 <0>         0.1176
     64 H29         3.2946   -5.4689   -4.3890 H         1 <0>         0.3863
@<TRIPOS>BOND
     1    1    2 1
     2    1   38 1
     3    1   39 1
     4    1   40 1
     5    2    3 1
     6    2    4 1
     7    2   41 1
     8    3   42 1
     9    3   43 1
    10    3   44 1
    11    4    8 2
    12    4    5 1
    13    5    6 2
    14    5   26 1
    15    6    7 1
    16    6   19 1
    17    7    8 1
    18    7    9 1
    19    9   14 ar
    20    9   10 ar
    21   10   11 ar
    22   10   45 1
    23   11   12 ar
    24   11   46 1
    25   12   13 ar
    26   12   47 1
    27   13   18 ar
    28   13   14 ar
    29   14   15 ar
    30   15   16 ar
    31   15   48 1
    32   16   17 ar
    33   16   49 1
    34   17   18 ar
    35   17   50 1
    36   18   51 1
    37   19   24 ar
    38   19   20 ar
    39   20   21 ar
    40   20   52 1
    41   21   22 ar
    42   21   53 1
    43   22   23 ar
    44   22   25 1
    45   23   24 ar
    46   23   54 1
    47   24   55 1
    48   26   27 1
    49   26   56 1
    50   26   57 1
    51   27   28 1
    52   27   58 1
    53   27   59 1
    54   28   29 1
    55   28   36 1
    56   28   30 1
    57   30   31 1
    58   30   60 1
    59   30   61 1
    60   31   32 1
    61   31   33 1
    62   31   37 1
    63   33   34 1
    64   33   62 1
    65   33   63 1
    66   34   35 2
    67   34   36 1
    68   37   64 1
@<TRIPOS>MOLECULE
CHEMBL322643
   60    62     0     0     0
SMALL
USER_CHARGES

@<TRIPOS>ATOM
      1 C1         -0.0187    1.5258    0.0104 C.3       1 <0>        -0.1445
      2 C2          0.0021   -0.0041    0.0020 C.3       1 <0>        -0.0597
      3 C3          0.7421   -0.5109    1.2415 C.3       1 <0>        -0.1441
      4 C4         -1.4117   -0.5257    0.0127 C.ar      1 <0>        -0.0185
      5 C5         -2.2721   -0.2141    1.0480 C.ar      1 <0>        -0.1556
      6 C6         -3.5753   -0.7116    1.0296 C.ar      1 <0>         0.1674
      7 N1         -3.9995   -1.4781    0.0342 N.ar      1 <0>        -0.4689
      8 C7         -3.2100   -1.8022   -0.9783 C.ar      1 <0>         0.1842
      9 C8         -1.8850   -1.3318   -1.0285 C.ar      1 <0>        -0.0826
     10 C9         -1.0063   -1.6875   -2.1590 C.2       1 <0>        -0.1369
     11 C10        -0.8925   -2.9547   -2.5381 C.2       1 <0>        -0.1470
     12 C11         0.0050   -3.3180   -3.6928 C.3       1 <0>         0.1405
     13 C12         1.0101   -4.3802   -3.2429 C.3       1 <0>        -0.1809
     14 C13         1.8388   -4.8395   -4.4443 C.3       1 <0>         0.1377
     15 H1          1.1722   -5.1799   -5.2367 H         1 <0>         0.0939
     16 C14         2.7567   -5.9883   -4.0215 C.3       1 <0>        -0.2193
     17 C15         3.4826   -6.5219   -5.2295 C.2       1 <0>         0.4907
     18 O1          3.2842   -6.0291   -6.3269 O.co2     1 <0>        -0.6808
     19 O2          4.2683   -7.4465   -5.1094 O.co2     1 <0>        -0.7130
     20 O3          2.6294   -3.7494   -4.9224 O.3       1 <0>        -0.5276
     21 O4          0.7072   -2.1546   -4.1347 O.3       1 <0>        -0.5368
     22 C16        -3.7273   -2.6614   -2.0685 C.ar      1 <0>        -0.0623
     23 C17        -3.3009   -2.4589   -3.3809 C.ar      1 <0>        -0.0575
     24 C18        -3.7850   -3.2618   -4.3926 C.ar      1 <0>        -0.1577
     25 C19        -4.6937   -4.2683   -4.1067 C.ar      1 <0>         0.1128
     26 C20        -5.1203   -4.4733   -2.8043 C.ar      1 <0>        -0.1628
     27 C21        -4.6379   -3.6790   -1.7851 C.ar      1 <0>        -0.0539
     28 F1         -5.1654   -5.0519   -5.1010 F         1 <0>        -0.1372
     29 C22        -4.4997   -0.3787    2.1399 C.ar      1 <0>        -0.0456
     30 C23        -4.0690    0.4303    3.1903 C.ar      1 <0>        -0.1020
     31 C24        -4.9338    0.7368    4.2210 C.ar      1 <0>        -0.1235
     32 C25        -6.2258    0.2425    4.2136 C.ar      1 <0>        -0.1113
     33 C26        -6.6587   -0.5612    3.1742 C.ar      1 <0>        -0.1254
     34 C27        -5.8048   -0.8689    2.1346 C.ar      1 <0>        -0.0803
     35 H2          1.0039    1.9031    0.0027 H         1 <0>         0.0638
     36 H3         -0.5459    1.8868   -0.8726 H         1 <0>         0.0577
     37 H4         -0.5289    1.8773    0.9072 H         1 <0>         0.0561
     38 H5          0.5123   -0.3556   -0.8948 H         1 <0>         0.0896
     39 H6          0.2319   -0.1594    2.1383 H         1 <0>         0.0559
     40 H7          0.7568   -1.6008    1.2356 H         1 <0>         0.0576
     41 H8          1.7647   -0.1336    1.2338 H         1 <0>         0.0639
     42 H9         -1.9384    0.4089    1.8646 H         1 <0>         0.1368
     43 H10        -0.4556   -0.9170   -2.6781 H         1 <0>         0.1361
     44 H11        -1.4432   -3.7252   -2.0189 H         1 <0>         0.1163
     45 H12        -0.5975   -3.7116   -4.5115 H         1 <0>         0.1114
     46 H13         1.6709   -3.9577   -2.4860 H         1 <0>         0.0643
     47 H14         0.4751   -5.2322   -2.8235 H         1 <0>         0.0754
     48 H15         3.4816   -5.6249   -3.2931 H         1 <0>         0.0563
     49 H16         2.1606   -6.7841   -3.5748 H         1 <0>         0.0611
     50 H17         3.2472   -3.3950   -4.2683 H         1 <0>         0.3499
     51 H18         1.2650   -1.7503   -3.4560 H         1 <0>         0.3656
     52 H19        -2.5930   -1.6746   -3.6047 H         1 <0>         0.1442
     53 H20        -3.4556   -3.1056   -5.4092 H         1 <0>         0.1412
     54 H21        -5.8286   -5.2590   -2.5863 H         1 <0>         0.1371
     55 H22        -4.9675   -3.8425   -0.7697 H         1 <0>         0.1360
     56 H23        -3.0603    0.8162    3.1975 H         1 <0>         0.1254
     57 H24        -4.6012    1.3635    5.0353 H         1 <0>         0.1251
     58 H25        -6.8991    0.4847    5.0226 H         1 <0>         0.1227
     59 H26        -7.6683   -0.9445    3.1738 H         1 <0>         0.1248
     60 H27        -6.1454   -1.4921    1.3211 H         1 <0>         0.1346
@<TRIPOS>BOND
     1    1    2 1
     2    1   35 1
     3    1   36 1
     4    1   37 1
     5    2    3 1
     6    2    4 1
     7    2   38 1
     8    3   39 1
     9    3   40 1
    10    3   41 1
    11    4    9 ar
    12    4    5 ar
    13    5    6 ar
    14    5   42 1
    15    6    7 ar
    16    6   29 1
    17    7    8 ar
    18    8    9 ar
    19    8   22 1
    20    9   10 1
    21   10   11 2
    22   10   43 1
    23   11   12 1
    24   11   44 1
    25   12   13 1
    26   12   21 1
    27   12   45 1
    28   13   14 1
    29   13   46 1
    30   13   47 1
    31   14   15 1
    32   14   16 1
    33   14   20 1
    34   16   17 1
    35   16   48 1
    36   16   49 1
    37   17   18 2
    38   17   19 1
    39   20   50 1
    40   21   51 1
    41   22   27 ar
    42   22   23 ar
    43   23   24 ar
    44   23   52 1
    45   24   25 ar
    46   24   53 1
    47   25   26 ar
    48   25   28 1
    49   26   27 ar
    50   26   54 1
    51   27   55 1
    52   29   34 ar
    53   29   30 ar
    54   30   31 ar
    55   30   56 1
    56   31   32 ar
    57   31   57 1
    58   32   33 ar
    59   32   58 1
    60   33   34 ar
    61   33   59 1
    62   34   60 1
@<TRIPOS>MOLECULE
CHEMBL322643__1
   60    62     0     0     0
SMALL
USER_CHARGES

@<TRIPOS>ATOM
      1 C1         -0.0187    1.5258    0.0104 C.3       1 <0>        -0.1443
      2 C2          0.0021   -0.0041    0.0020 C.3       1 <0>        -0.0615
      3 C3          0.7421   -0.5109    1.2415 C.3       1 <0>        -0.1437
      4 C4         -1.4117   -0.5257    0.0127 C.ar      1 <0>        -0.0166
      5 C5         -2.2721   -0.2141    1.0480 C.ar      1 <0>        -0.1563
      6 C6         -3.5753   -0.7116    1.0296 C.ar      1 <0>         0.1687
      7 N1         -3.9995   -1.4781    0.0342 N.ar      1 <0>        -0.4694
      8 C7         -3.2100   -1.8022   -0.9783 C.ar      1 <0>         0.1865
      9 C8         -1.8850   -1.3318   -1.0285 C.ar      1 <0>        -0.0871
     10 C9         -1.0063   -1.6875   -2.1590 C.2       1 <0>        -0.1253
     11 C10        -0.8925   -2.9547   -2.5381 C.2       1 <0>        -0.1451
     12 C11         0.0050   -3.3180   -3.6928 C.3       1 <0>         0.1403
     13 C12         1.0879   -4.2862   -3.2121 C.3       1 <0>        -0.1820
     14 C13         2.0718   -4.5576   -4.3519 C.3       1 <0>         0.1361
     15 H1          1.5263   -4.9146   -5.2255 H         1 <0>         0.1033
     16 C14         3.0814   -5.6197   -3.9120 C.3       1 <0>        -0.2186
     17 C15         3.9735   -5.9762   -5.0731 C.2       1 <0>         0.4906
     18 O1          3.8163   -5.4313   -6.1524 O.co2     1 <0>        -0.6806
     19 O2          4.8525   -6.8095   -4.9332 O.co2     1 <0>        -0.7128
     20 O3          2.7628   -3.3512   -4.6821 O.3       1 <0>        -0.5411
     21 O4         -0.7689   -3.9409   -4.7200 O.3       1 <0>        -0.5433
     22 C16        -3.7273   -2.6614   -2.0685 C.ar      1 <0>        -0.0648
     23 C17        -3.3009   -2.4589   -3.3809 C.ar      1 <0>        -0.0527
     24 C18        -3.7850   -3.2618   -4.3926 C.ar      1 <0>        -0.1458
     25 C19        -4.6937   -4.2683   -4.1067 C.ar      1 <0>         0.1094
     26 C20        -5.1203   -4.4733   -2.8043 C.ar      1 <0>        -0.1641
     27 C21        -4.6379   -3.6790   -1.7851 C.ar      1 <0>        -0.0559
     28 F1         -5.1654   -5.0519   -5.1010 F         1 <0>        -0.1381
     29 C22        -4.4997   -0.3787    2.1399 C.ar      1 <0>        -0.0460
     30 C23        -4.0690    0.4303    3.1903 C.ar      1 <0>        -0.1017
     31 C24        -4.9338    0.7368    4.2210 C.ar      1 <0>        -0.1235
     32 C25        -6.2258    0.2425    4.2136 C.ar      1 <0>        -0.1111
     33 C26        -6.6587   -0.5612    3.1742 C.ar      1 <0>        -0.1256
     34 C27        -5.8048   -0.8689    2.1346 C.ar      1 <0>        -0.0801
     35 H2          1.0039    1.9031    0.0027 H         1 <0>         0.0641
     36 H3         -0.5459    1.8868   -0.8726 H         1 <0>         0.0574
     37 H4         -0.5289    1.8773    0.9072 H         1 <0>         0.0563
     38 H5          0.5123   -0.3556   -0.8948 H         1 <0>         0.0904
     39 H6          0.2319   -0.1594    2.1383 H         1 <0>         0.0559
     40 H7          0.7568   -1.6008    1.2356 H         1 <0>         0.0578
     41 H8          1.7647   -0.1336    1.2338 H         1 <0>         0.0642
     42 H9         -1.9384    0.4089    1.8646 H         1 <0>         0.1371
     43 H10        -0.4556   -0.9170   -2.6781 H         1 <0>         0.1297
     44 H11        -1.4432   -3.7252   -2.0189 H         1 <0>         0.1125
     45 H12         0.4731   -2.4160   -4.0870 H         1 <0>         0.1103
     46 H13         1.6207   -3.8459   -2.3693 H         1 <0>         0.0689
     47 H14         0.6255   -5.2228   -2.9005 H         1 <0>         0.0700
     48 H15         3.6875   -5.2284   -3.0949 H         1 <0>         0.0561
     49 H16         2.5494   -6.5096   -3.5759 H         1 <0>         0.0616
     50 H17         3.2709   -2.9759   -3.9499 H         1 <0>         0.3533
     51 H18        -1.2151   -4.7516   -4.4394 H         1 <0>         0.3689
     52 H19        -2.5930   -1.6746   -3.6047 H         1 <0>         0.1411
     53 H20        -3.4556   -3.1056   -5.4092 H         1 <0>         0.1436
     54 H21        -5.8286   -5.2590   -2.5863 H         1 <0>         0.1356
     55 H22        -4.9675   -3.8425   -0.7697 H         1 <0>         0.1346
     56 H23        -3.0603    0.8162    3.1975 H         1 <0>         0.1255
     57 H24        -4.6012    1.3635    5.0353 H         1 <0>         0.1252
     58 H25        -6.8991    0.4847    5.0226 H         1 <0>         0.1227
     59 H26        -7.6683   -0.9445    3.1738 H         1 <0>         0.1248
     60 H27        -6.1454   -1.4921    1.3211 H         1 <0>         0.1347
@<TRIPOS>BOND
     1    1    2 1
     2    1   35 1
     3    1   36 1
     4    1   37 1
     5    2    3 1
     6    2    4 1
     7    2   38 1
     8    3   39 1
     9    3   40 1
    10    3   41 1
    11    4    9 ar
    12    4    5 ar
    13    5    6 ar
    14    5   42 1
    15    6    7 ar
    16    6   29 1
    17    7    8 ar
    18    8    9 ar
    19    8   22 1
    20    9   10 1
    21   10   11 2
    22   10   43 1
    23   11   12 1
    24   11   44 1
    25   12   13 1
    26   12   21 1
    27   12   45 1
    28   13   14 1
    29   13   46 1
    30   13   47 1
    31   14   15 1
    32   14   16 1
    33   14   20 1
    34   16   17 1
    35   16   48 1
    36   16   49 1
    37   17   18 2
    38   17   19 1
    39   20   50 1
    40   21   51 1
    41   22   27 ar
    42   22   23 ar
    43   23   24 ar
    44   23   52 1
    45   24   25 ar
    46   24   53 1
    47   25   26 ar
    48   25   28 1
    49   26   27 ar
    50   26   54 1
    51   27   55 1
    52   29   34 ar
    53   29   30 ar
    54   30   31 ar
    55   30   56 1
    56   31   32 ar
    57   31   57 1
    58   32   33 ar
    59   32   58 1
    60   33   34 ar
    61   33   59 1
    62   34   60 1
@<TRIPOS>MOLECULE
CHEMBL348798
   60    61     0     0     0
SMALL
USER_CHARGES

@<TRIPOS>ATOM
      1 C1         -0.0187    1.5258    0.0104 C.3       1 <0>        -0.1517
      2 C2          0.0021   -0.0041    0.0020 C.3       1 <0>        -0.0289
      3 C3          0.7421   -0.5109    1.2415 C.3       1 <0>        -0.1516
      4 C4         -1.4117   -0.5257    0.0127 C.2       1 <0>         0.0293
      5 C5         -1.9677   -1.3097   -0.9298 C.2       1 <0>        -0.1352
      6 C6         -3.3046   -1.5658   -0.5319 C.2       1 <0>        -0.1314
      7 C7         -3.5015   -0.9181    0.6477 C.2       1 <0>         0.0077
      8 N1         -2.3416   -0.2876    0.9821 N.pl3     1 <0>        -0.4309
      9 C8         -2.1281    0.5192    2.1861 C.3       1 <0>         0.1170
     10 C9         -3.1132    1.6899    2.1969 C.3       1 <0>        -0.1641
     11 C10        -2.3523   -0.3473    3.4270 C.3       1 <0>        -0.1642
     12 C11        -4.3012   -2.3858   -1.2649 C.ar      1 <0>        -0.0050
     13 C12        -4.5228   -2.1670   -2.6230 C.ar      1 <0>        -0.0812
     14 C13        -5.4504   -2.9317   -3.3006 C.ar      1 <0>        -0.1490
     15 C14        -6.1608   -3.9156   -2.6326 C.ar      1 <0>         0.0881
     16 C15        -5.9436   -4.1365   -1.2823 C.ar      1 <0>        -0.1515
     17 C16        -5.0138   -3.3803   -0.5982 C.ar      1 <0>        -0.0884
     18 F1         -7.0683   -4.6616   -3.2997 F         1 <0>        -0.1430
     19 C17        -1.2943   -1.8202   -2.1776 C.3       1 <0>        -0.0448
     20 C18        -0.6276   -3.1655   -1.8834 C.3       1 <0>        -0.1394
     21 C19         0.0561   -3.6837   -3.1502 C.3       1 <0>         0.1128
     22 H1         -0.6690   -3.7265   -3.9629 H         1 <0>         0.0943
     23 C20         0.6154   -5.0841   -2.8914 C.3       1 <0>        -0.1862
     24 C21         1.1885   -5.6526   -4.1911 C.3       1 <0>         0.1375
     25 H2          0.4238   -5.6266   -4.9674 H         1 <0>         0.0919
     26 C22         1.6343   -7.0983   -3.9626 C.3       1 <0>        -0.2193
     27 C23         2.0845   -7.6977   -5.2698 C.2       1 <0>         0.4906
     28 O1          2.0519   -7.0306   -6.2898 O.co2     1 <0>        -0.6811
     29 O2          2.4815   -8.8499   -5.3075 O.co2     1 <0>        -0.7143
     30 O3          2.3100   -4.8674   -4.6007 O.3       1 <0>        -0.5280
     31 O4          1.1230   -2.8037   -3.5097 O.3       1 <0>        -0.5424
     32 H3          1.0039    1.9031    0.0027 H         1 <0>         0.0609
     33 H4         -0.5459    1.8868   -0.8726 H         1 <0>         0.0595
     34 H5         -0.5289    1.8773    0.9072 H         1 <0>         0.0520
     35 H6          0.5123   -0.3556   -0.8948 H         1 <0>         0.0969
     36 H7          0.2319   -0.1594    2.1383 H         1 <0>         0.0520
     37 H8          0.7568   -1.6008    1.2356 H         1 <0>         0.0596
     38 H9          1.7647   -0.1336    1.2338 H         1 <0>         0.0611
     39 H10        -4.4166   -0.9089    1.2213 H         1 <0>         0.1574
     40 H11        -1.1079    0.9028    2.1903 H         1 <0>         0.1083
     41 H12        -2.9544    2.2901    3.0927 H         1 <0>         0.0731
     42 H13        -2.9535    2.3072    1.3128 H         1 <0>         0.0643
     43 H14        -4.1334    1.3062    2.1927 H         1 <0>         0.0639
     44 H15        -1.6505   -1.1813    3.4194 H         1 <0>         0.0647
     45 H16        -2.1934    0.2530    4.3229 H         1 <0>         0.0732
     46 H17        -3.3725   -0.7309    3.4229 H         1 <0>         0.0639
     47 H18        -3.9697   -1.3999   -3.1445 H         1 <0>         0.1329
     48 H19        -5.6231   -2.7625   -4.3532 H         1 <0>         0.1345
     49 H20        -6.4999   -4.9044   -0.7653 H         1 <0>         0.1323
     50 H21        -4.8419   -3.5562    0.4534 H         1 <0>         0.1284
     51 H22        -2.0370   -1.9473   -2.9653 H         1 <0>         0.0673
     52 H23        -0.5395   -1.1039   -2.5021 H         1 <0>         0.0716
     53 H24         0.1151   -3.0384   -1.0957 H         1 <0>         0.0590
     54 H25        -1.3824   -3.8818   -1.5589 H         1 <0>         0.0666
     55 H26         1.4037   -5.0275   -2.1408 H         1 <0>         0.0603
     56 H27        -0.1828   -5.7334   -2.5317 H         1 <0>         0.0718
     57 H28         2.4601   -7.1157   -3.2513 H         1 <0>         0.0554
     58 H29         0.8005   -7.6771   -3.5654 H         1 <0>         0.0604
     59 H30         3.0309   -4.8453   -3.9566 H         1 <0>         0.3489
     60 H31         1.8069   -2.7170   -2.8315 H         1 <0>         0.3621
@<TRIPOS>BOND
     1    1    2 1
     2    1   32 1
     3    1   33 1
     4    1   34 1
     5    2    3 1
     6    2    4 1
     7    2   35 1
     8    3   36 1
     9    3   37 1
    10    3   38 1
    11    4    8 1
    12    4    5 2
    13    5    6 1
    14    5   19 1
    15    6    7 2
    16    6   12 1
    17    7    8 1
    18    7   39 1
    19    8    9 1
    20    9   10 1
    21    9   11 1
    22    9   40 1
    23   10   41 1
    24   10   42 1
    25   10   43 1
    26   11   44 1
    27   11   45 1
    28   11   46 1
    29   12   17 ar
    30   12   13 ar
    31   13   14 ar
    32   13   47 1
    33   14   15 ar
    34   14   48 1
    35   15   16 ar
    36   15   18 1
    37   16   17 ar
    38   16   49 1
    39   17   50 1
    40   19   20 1
    41   19   51 1
    42   19   52 1
    43   20   21 1
    44   20   53 1
    45   20   54 1
    46   21   22 1
    47   21   23 1
    48   21   31 1
    49   23   24 1
    50   23   55 1
    51   23   56 1
    52   24   25 1
    53   24   26 1
    54   24   30 1
    55   26   27 1
    56   26   57 1
    57   26   58 1
    58   27   28 2
    59   27   29 1
    60   30   59 1
    61   31   60 1
@<TRIPOS>MOLECULE
CHEMBL101497
   56    58     0     0     0
SMALL
USER_CHARGES

@<TRIPOS>ATOM
      1 C1         -0.1621    1.5161    0.0566 C.3       1 <0>        -0.1531
      2 C2          0.0021   -0.0041    0.0020 C.3       1 <0>        -0.0598
      3 C3          0.6862   -0.3964   -1.3091 C.3       1 <0>        -0.1568
      4 C4          0.8453   -0.4604    1.1647 C.ar      1 <0>        -0.0328
      5 C5          2.1628    0.0089    1.3298 C.ar      1 <0>        -0.0846
      6 C6          2.7315    0.9145    0.4199 C.ar      1 <0>        -0.1052
      7 C7          4.0083    1.3482    0.6099 C.ar      1 <0>        -0.1183
      8 C8          4.7598    0.9048    1.6963 C.ar      1 <0>        -0.1019
      9 C9          4.2406    0.0273    2.5977 C.ar      1 <0>        -0.0910
     10 C10         2.9250   -0.4434    2.4361 C.ar      1 <0>         0.1270
     11 N1          2.3929   -1.3049    3.3075 N.ar      1 <0>        -0.4577
     12 C11         1.1606   -1.7521    3.1641 C.ar      1 <0>         0.1948
     13 C12         0.3489   -1.3366    2.0901 C.ar      1 <0>         0.0575
     14 O1         -0.9194   -1.8087    1.9711 O.3       1 <0>        -0.3101
     15 C13        -1.0963   -3.0110    1.2193 C.3       1 <0>         0.0320
     16 C14        -2.5799   -3.3842    1.1959 C.3       1 <0>         0.1201
     17 C15        -2.7550   -4.7349    0.4987 C.3       1 <0>        -0.1851
     18 C16        -4.2201   -5.1671    0.5849 C.3       1 <0>         0.1402
     19 H1         -4.5368   -5.1720    1.6279 H         1 <0>         0.0952
     20 C17        -4.3727   -6.5722   -0.0011 C.3       1 <0>        -0.2192
     21 C18        -5.7895   -7.0470    0.1946 C.2       1 <0>         0.4908
     22 O2         -6.6019   -6.3281    0.7511 O.co2     1 <0>        -0.6802
     23 O3         -6.1233   -8.1499   -0.2037 O.co2     1 <0>        -0.7124
     24 O4         -5.0310   -4.2520   -0.1547 O.3       1 <0>        -0.5266
     25 O5         -3.3117   -2.3832    0.4857 O.3       1 <0>        -0.5305
     26 C19         0.6159   -2.7073    4.1575 C.ar      1 <0>        -0.0704
     27 C20        -0.7335   -2.6601    4.5062 C.ar      1 <0>        -0.0503
     28 C21        -1.2361   -3.5512    5.4313 C.ar      1 <0>        -0.1578
     29 C22        -0.4023   -4.4923    6.0140 C.ar      1 <0>         0.1154
     30 C23         0.9394   -4.5428    5.6710 C.ar      1 <0>        -0.1638
     31 C24         1.4497   -3.6599    4.7422 C.ar      1 <0>        -0.0501
     32 F1         -0.8990   -5.3631    6.9197 F         1 <0>        -0.1364
     33 H2          0.8192    1.9852    0.1285 H         1 <0>         0.0640
     34 H3         -0.6639    1.8601   -0.8478 H         1 <0>         0.0653
     35 H4         -0.7585    1.7861    0.9282 H         1 <0>         0.0602
     36 H5         -0.9782   -0.4776    0.0562 H         1 <0>         0.0985
     37 H6          1.7095   -0.0208   -1.3115 H         1 <0>         0.0657
     38 H7          0.6975   -1.4823   -1.4022 H         1 <0>         0.0553
     39 H8          0.1390    0.0345   -2.1475 H         1 <0>         0.0668
     40 H9          2.1595    1.2650   -0.4264 H         1 <0>         0.1457
     41 H10         4.4443    2.0448   -0.0909 H         1 <0>         0.1277
     42 H11         5.7706    1.2628    1.8248 H         1 <0>         0.1297
     43 H12         4.8367   -0.3067    3.4340 H         1 <0>         0.1356
     44 H13        -0.7442   -2.8568    0.1993 H         1 <0>         0.0555
     45 H14        -0.5263   -3.8163    1.6826 H         1 <0>         0.0616
     46 H15        -2.9538   -3.4515    2.2175 H         1 <0>         0.1075
     47 H16        -2.4639   -4.6440   -0.5477 H         1 <0>         0.0656
     48 H17        -2.1270   -5.4800    0.9872 H         1 <0>         0.0768
     49 H18        -4.1410   -6.5489   -1.0659 H         1 <0>         0.0567
     50 H19        -3.6882   -7.2531    0.5049 H         1 <0>         0.0615
     51 H20        -4.8048   -4.1958   -1.0932 H         1 <0>         0.3502
     52 H21        -3.0318   -2.2686   -0.4328 H         1 <0>         0.3633
     53 H22        -1.3840   -1.9267    4.0529 H         1 <0>         0.1499
     54 H23        -2.2809   -3.5151    5.7023 H         1 <0>         0.1428
     55 H24         1.5855   -5.2778    6.1280 H         1 <0>         0.1382
     56 H25         2.4944   -3.7033    4.4717 H         1 <0>         0.1369
@<TRIPOS>BOND
     1    1    2 1
     2    1   33 1
     3    1   34 1
     4    1   35 1
     5    2    3 1
     6    2    4 1
     7    2   36 1
     8    3   37 1
     9    3   38 1
    10    3   39 1
    11    4   13 ar
    12    4    5 ar
    13    5   10 ar
    14    5    6 ar
    15    6    7 ar
    16    6   40 1
    17    7    8 ar
    18    7   41 1
    19    8    9 ar
    20    8   42 1
    21    9   10 ar
    22    9   43 1
    23   10   11 ar
    24   11   12 ar
    25   12   13 ar
    26   12   26 1
    27   13   14 1
    28   14   15 1
    29   15   16 1
    30   15   44 1
    31   15   45 1
    32   16   17 1
    33   16   25 1
    34   16   46 1
    35   17   18 1
    36   17   47 1
    37   17   48 1
    38   18   19 1
    39   18   20 1
    40   18   24 1
    41   20   21 1
    42   20   49 1
    43   20   50 1
    44   21   22 2
    45   21   23 1
    46   24   51 1
    47   25   52 1
    48   26   31 ar
    49   26   27 ar
    50   27   28 ar
    51   27   53 1
    52   28   29 ar
    53   28   54 1
    54   29   30 ar
    55   29   32 1
    56   30   31 ar
    57   30   55 1
    58   31   56 1
@<TRIPOS>MOLECULE
CHEMBL101497__1
   56    58     0     0     0
SMALL
USER_CHARGES

@<TRIPOS>ATOM
      1 C1         -0.1621    1.5161    0.0567 C.3       1 <0>        -0.1538
      2 C2          0.0021   -0.0041    0.0020 C.3       1 <0>        -0.0598
      3 C3          0.6862   -0.3963   -1.3091 C.3       1 <0>        -0.1569
      4 C4          0.8453   -0.4604    1.1647 C.ar      1 <0>        -0.0335
      5 C5          2.1629    0.0089    1.3298 C.ar      1 <0>        -0.0844
      6 C6          2.7315    0.9145    0.4199 C.ar      1 <0>        -0.1053
      7 C7          4.0083    1.3482    0.6099 C.ar      1 <0>        -0.1183
      8 C8          4.7598    0.9048    1.6962 C.ar      1 <0>        -0.1018
      9 C9          4.2406    0.0274    2.5977 C.ar      1 <0>        -0.0911
     10 C10         2.9250   -0.4433    2.4361 C.ar      1 <0>         0.1271
     11 N1          2.3929   -1.3048    3.3075 N.ar      1 <0>        -0.4582
     12 C11         1.1607   -1.7521    3.1641 C.ar      1 <0>         0.1956
     13 C12         0.3490   -1.3366    2.0901 C.ar      1 <0>         0.0571
     14 O1         -0.9194   -1.8087    1.9711 O.3       1 <0>        -0.3104
     15 C13        -1.0963   -3.0110    1.2193 C.3       1 <0>         0.0324
     16 C14        -2.5798   -3.3842    1.1959 C.3       1 <0>         0.1181
     17 C15        -2.7858   -4.5993    0.2892 C.3       1 <0>        -0.1842
     18 C16        -4.2816   -4.8964    0.1664 C.3       1 <0>         0.1381
     19 H1         -4.7106   -5.0185    1.1609 H         1 <0>         0.1048
     20 C17        -4.4818   -6.1830   -0.6369 C.3       1 <0>        -0.2187
     21 C18        -5.9453   -6.5421   -0.6538 C.2       1 <0>         0.4906
     22 O2         -6.7533   -5.8345   -0.0768 O.co2     1 <0>        -0.6798
     23 O3         -6.3213   -7.5402   -1.2444 O.co2     1 <0>        -0.7123
     24 O4         -4.9293   -3.8119   -0.5019 O.3       1 <0>        -0.5399
     25 O5         -3.0127   -3.6997    2.5207 O.3       1 <0>        -0.5412
     26 C19         0.6159   -2.7073    4.1575 C.ar      1 <0>        -0.0736
     27 C20        -0.7335   -2.6601    4.5062 C.ar      1 <0>        -0.0414
     28 C21        -1.2360   -3.5512    5.4314 C.ar      1 <0>        -0.1564
     29 C22        -0.4023   -4.4923    6.0140 C.ar      1 <0>         0.1136
     30 C23         0.9395   -4.5428    5.6710 C.ar      1 <0>        -0.1663
     31 C24         1.4498   -3.6599    4.7422 C.ar      1 <0>        -0.0505
     32 F1         -0.8989   -5.3631    6.9197 F         1 <0>        -0.1375
     33 H2          0.8192    1.9852    0.1285 H         1 <0>         0.0649
     34 H3         -0.6639    1.8601   -0.8477 H         1 <0>         0.0657
     35 H4         -0.7585    1.7861    0.9282 H         1 <0>         0.0602
     36 H5         -0.9782   -0.4776    0.0562 H         1 <0>         0.0956
     37 H6          1.7095   -0.0208   -1.3115 H         1 <0>         0.0661
     38 H7          0.6975   -1.4823   -1.4022 H         1 <0>         0.0561
     39 H8          0.1390    0.0346   -2.1475 H         1 <0>         0.0671
     40 H9          2.1594    1.2650   -0.4264 H         1 <0>         0.1458
     41 H10         4.4443    2.0448   -0.0909 H         1 <0>         0.1277
     42 H11         5.7706    1.2628    1.8247 H         1 <0>         0.1297
     43 H12         4.8367   -0.3066    3.4340 H         1 <0>         0.1356
     44 H13        -0.7442   -2.8568    0.1993 H         1 <0>         0.0614
     45 H14        -0.5263   -3.8163    1.6826 H         1 <0>         0.0559
     46 H15        -3.1599   -2.5439    0.8146 H         1 <0>         0.1157
     47 H16        -2.3747   -4.3896   -0.6983 H         1 <0>         0.0705
     48 H17        -2.2778   -5.4631    0.7183 H         1 <0>         0.0721
     49 H18        -4.1331   -6.0315   -1.6585 H         1 <0>         0.0567
     50 H19        -3.9146   -6.9914   -0.1755 H         1 <0>         0.0622
     51 H20        -4.5972   -3.6455   -1.3947 H         1 <0>         0.3537
     52 H21        -2.5385   -4.4399    2.9236 H         1 <0>         0.3664
     53 H22        -1.3839   -1.9267    4.0529 H         1 <0>         0.1526
     54 H23        -2.2809   -3.5151    5.7023 H         1 <0>         0.1439
     55 H24         1.5855   -5.2778    6.1280 H         1 <0>         0.1368
     56 H25         2.4944   -3.7033    4.4716 H         1 <0>         0.1356
@<TRIPOS>BOND
     1    1    2 1
     2    1   33 1
     3    1   34 1
     4    1   35 1
     5    2    3 1
     6    2    4 1
     7    2   36 1
     8    3   37 1
     9    3   38 1
    10    3   39 1
    11    4   13 ar
    12    4    5 ar
    13    5   10 ar
    14    5    6 ar
    15    6    7 ar
    16    6   40 1
    17    7    8 ar
    18    7   41 1
    19    8    9 ar
    20    8   42 1
    21    9   10 ar
    22    9   43 1
    23   10   11 ar
    24   11   12 ar
    25   12   13 ar
    26   12   26 1
    27   13   14 1
    28   14   15 1
    29   15   16 1
    30   15   44 1
    31   15   45 1
    32   16   17 1
    33   16   25 1
    34   16   46 1
    35   17   18 1
    36   17   47 1
    37   17   48 1
    38   18   19 1
    39   18   20 1
    40   18   24 1
    41   20   21 1
    42   20   49 1
    43   20   50 1
    44   21   22 2
    45   21   23 1
    46   24   51 1
    47   25   52 1
    48   26   31 ar
    49   26   27 ar
    50   27   28 ar
    51   27   53 1
    52   28   29 ar
    53   28   54 1
    54   29   30 ar
    55   29   32 1
    56   30   31 ar
    57   30   55 1
    58   31   56 1
@<TRIPOS>MOLECULE
CHEMBL101774
   63    64     0     0     0
SMALL
USER_CHARGES

@<TRIPOS>ATOM
      1 C1          0.0691    1.3893   -0.1793 C.3       1 <0>        -0.1130
      2 C2          0.0746   -0.1166   -0.1209 C.ar      1 <0>        -0.0874
      3 C3          0.0928   -0.8527   -1.2914 C.ar      1 <0>        -0.1143
      4 C4          0.0974   -2.2330   -1.2406 C.ar      1 <0>        -0.0941
      5 C5          0.0843   -2.8809   -0.0137 C.ar      1 <0>         0.0963
      6 C6          0.0666   -2.1402    1.1590 C.ar      1 <0>        -0.0756
      7 C7          0.0673   -0.7597    1.1028 C.ar      1 <0>        -0.1111
      8 C8          0.0523   -2.8407    2.4932 C.3       1 <0>        -0.0135
      9 C9         -1.1236   -2.3270    3.3264 C.3       1 <0>        -0.1007
     10 C10        -2.4383   -2.7192    2.6492 C.3       1 <0>        -0.0939
     11 C11        -2.5773   -4.2429    2.6493 C.3       1 <0>        -0.1511
     12 C12        -3.6103   -2.1002    3.4135 C.3       1 <0>        -0.1461
     13 C13         1.3426   -2.5626    3.2204 C.ar      1 <0>        -0.0796
     14 C14         1.6156   -1.2876    3.6798 C.ar      1 <0>        -0.0870
     15 C15         2.7983   -1.0314    4.3472 C.ar      1 <0>        -0.1517
     16 C16         3.7100   -2.0524    4.5557 C.ar      1 <0>         0.0928
     17 C17         3.4356   -3.3290    4.0952 C.ar      1 <0>        -0.1470
     18 C18         2.2498   -3.5839    3.4327 C.ar      1 <0>        -0.0871
     19 F1          4.8668   -1.8031    5.2077 F         1 <0>        -0.1413
     20 O1          0.0884   -4.2389    0.0390 O.3       1 <0>        -0.3168
     21 C19         1.3635   -4.8827    0.0800 C.3       1 <0>         0.0328
     22 C20         1.1676   -6.3991    0.1363 C.3       1 <0>         0.1190
     23 C21         2.5258   -7.0828    0.3058 C.3       1 <0>        -0.1854
     24 C22         2.3199   -8.5880    0.4870 C.3       1 <0>         0.1401
     25 H1          1.6379   -8.7639    1.3189 H         1 <0>         0.0947
     26 C23         3.6651   -9.2551    0.7805 C.3       1 <0>        -0.2193
     27 C24         3.4468  -10.7158    1.0800 C.2       1 <0>         0.4907
     28 O2          2.3197  -11.1803    1.0605 O.co2     1 <0>        -0.6803
     29 O3          4.3973  -11.4331    1.3418 O.co2     1 <0>        -0.7126
     30 O4          1.7652   -9.1403   -0.7086 O.3       1 <0>        -0.5267
     31 O5          0.5574   -6.8458   -1.0762 O.3       1 <0>        -0.5308
     32 C25         0.1161   -3.0346   -2.5166 C.3       1 <0>        -0.1148
     33 H2          1.0954    1.7564   -0.1851 H         1 <0>         0.0690
     34 H3         -0.4387    1.7158   -1.0869 H         1 <0>         0.0656
     35 H4         -0.4534    1.7848    0.6917 H         1 <0>         0.0652
     36 H5          0.1029   -0.3479   -2.2462 H         1 <0>         0.1227
     37 H6          0.0576   -0.1826    2.0156 H         1 <0>         0.1235
     38 H7         -0.0535   -3.9145    2.3387 H         1 <0>         0.1019
     39 H8         -1.0827   -2.7671    4.3227 H         1 <0>         0.0691
     40 H9         -1.0657   -1.2414    3.4060 H         1 <0>         0.0637
     41 H10        -2.4410   -2.3542    1.6221 H         1 <0>         0.0712
     42 H11        -2.5746   -4.6080    3.6763 H         1 <0>         0.0516
     43 H12        -3.5139   -4.5224    2.1668 H         1 <0>         0.0524
     44 H13        -1.7424   -4.6839    2.1047 H         1 <0>         0.0650
     45 H14        -3.5113   -1.0147    3.4135 H         1 <0>         0.0505
     46 H15        -4.5469   -2.3797    2.9311 H         1 <0>         0.0536
     47 H16        -3.6076   -2.4652    4.4406 H         1 <0>         0.0531
     48 H17         0.9044   -0.4913    3.5167 H         1 <0>         0.1312
     49 H18         3.0115   -0.0352    4.7056 H         1 <0>         0.1334
     50 H19         4.1461   -4.1260    4.2570 H         1 <0>         0.1376
     51 H20         2.0335   -4.5806    3.0773 H         1 <0>         0.1334
     52 H21         1.9308   -4.6225   -0.8136 H         1 <0>         0.0525
     53 H22         1.9083   -4.5536    0.9649 H         1 <0>         0.0591
     54 H23         0.5259   -6.6514    0.9805 H         1 <0>         0.1049
     55 H24         3.1358   -6.9035   -0.5796 H         1 <0>         0.0656
     56 H25         3.0300   -6.6769    1.1827 H         1 <0>         0.0757
     57 H26         4.3171   -9.1556   -0.0874 H         1 <0>         0.0567
     58 H27         4.1296   -8.7733    1.6409 H         1 <0>         0.0613
     59 H28         2.3200   -9.0204   -1.4915 H         1 <0>         0.3505
     60 H29         1.0744   -6.6542   -1.8706 H         1 <0>         0.3635
     61 H30         1.1482   -3.2239   -2.8116 H         1 <0>         0.0661
     62 H31        -0.3961   -3.9834   -2.3572 H         1 <0>         0.0797
     63 H32        -0.3902   -2.4761   -3.3039 H         1 <0>         0.0651
@<TRIPOS>BOND
     1    1    2 1
     2    1   33 1
     3    1   34 1
     4    1   35 1
     5    2    7 ar
     6    2    3 ar
     7    3    4 ar
     8    3   36 1
     9    4    5 ar
    10    4   32 1
    11    5    6 ar
    12    5   20 1
    13    6    7 ar
    14    6    8 1
    15    7   37 1
    16    8    9 1
    17    8   13 1
    18    8   38 1
    19    9   10 1
    20    9   39 1
    21    9   40 1
    22   10   11 1
    23   10   12 1
    24   10   41 1
    25   11   42 1
    26   11   43 1
    27   11   44 1
    28   12   45 1
    29   12   46 1
    30   12   47 1
    31   13   18 ar
    32   13   14 ar
    33   14   15 ar
    34   14   48 1
    35   15   16 ar
    36   15   49 1
    37   16   17 ar
    38   16   19 1
    39   17   18 ar
    40   17   50 1
    41   18   51 1
    42   20   21 1
    43   21   22 1
    44   21   52 1
    45   21   53 1
    46   22   23 1
    47   22   31 1
    48   22   54 1
    49   23   24 1
    50   23   55 1
    51   23   56 1
    52   24   25 1
    53   24   26 1
    54   24   30 1
    55   26   27 1
    56   26   57 1
    57   26   58 1
    58   27   28 2
    59   27   29 1
    60   30   59 1
    61   31   60 1
    62   32   61 1
    63   32   62 1
    64   32   63 1
@<TRIPOS>MOLECULE
CHEMBL101774__1
   63    64     0     0     0
SMALL
USER_CHARGES

@<TRIPOS>ATOM
      1 C1          0.0707    1.3888   -0.1801 C.3       1 <0>        -0.1130
      2 C2          0.0755   -0.1171   -0.1214 C.ar      1 <0>        -0.0873
      3 C3          0.0931   -0.8534   -1.2918 C.ar      1 <0>        -0.1138
      4 C4          0.0971   -2.2337   -1.2407 C.ar      1 <0>        -0.0949
      5 C5          0.0839   -2.8814   -0.0137 C.ar      1 <0>         0.0960
      6 C6          0.0667   -2.1405    1.1588 C.ar      1 <0>        -0.0748
      7 C7          0.0681   -0.7600    1.1024 C.ar      1 <0>        -0.1116
      8 C8          0.0523   -2.8407    2.4932 C.3       1 <0>        -0.0146
      9 C9         -1.1236   -2.3267    3.3262 C.3       1 <0>        -0.0999
     10 C10        -2.4383   -2.7189    2.6490 C.3       1 <0>        -0.0937
     11 C11        -2.5774   -4.2426    2.6494 C.3       1 <0>        -0.1511
     12 C12        -3.6102   -2.0996    3.4132 C.3       1 <0>        -0.1462
     13 C13         1.3426   -2.5626    3.2204 C.ar      1 <0>        -0.0783
     14 C14         1.6156   -1.2876    3.6798 C.ar      1 <0>        -0.0871
     15 C15         2.7983   -1.0314    4.3472 C.ar      1 <0>        -0.1510
     16 C16         3.7100   -2.0524    4.5557 C.ar      1 <0>         0.0924
     17 C17         3.4356   -3.3290    4.0952 C.ar      1 <0>        -0.1474
     18 C18         2.2498   -3.5839    3.4327 C.ar      1 <0>        -0.0872
     19 F1          4.8668   -1.8031    5.2077 F         1 <0>        -0.1414
     20 O1          0.0873   -4.2393    0.0392 O.3       1 <0>        -0.3168
     21 C19         1.3621   -4.8838    0.0802 C.3       1 <0>         0.0336
     22 C20         1.1655   -6.4000    0.1368 C.3       1 <0>         0.1164
     23 C21         2.5265   -7.0942    0.0549 C.3       1 <0>        -0.1842
     24 C22         2.3231   -8.6090   -0.0141 C.3       1 <0>         0.1377
     25 H1          1.7199   -8.9337    0.8338 H         1 <0>         0.1042
     26 C23         3.6830   -9.3088    0.0297 C.3       1 <0>        -0.2186
     27 C24         3.4786  -10.8008    0.0856 C.2       1 <0>         0.4906
     28 O2          2.3499  -11.2618    0.0899 O.co2     1 <0>        -0.6799
     29 O3          4.4420  -11.5470    0.1265 O.co2     1 <0>        -0.7125
     30 O4          1.6537   -8.9447   -1.2312 O.3       1 <0>        -0.5401
     31 O5          0.5245   -6.7517    1.3645 O.3       1 <0>        -0.5417
     32 C25         0.1153   -3.0355   -2.5166 C.3       1 <0>        -0.1150
     33 H2          1.0972    1.7554   -0.1861 H         1 <0>         0.0690
     34 H3         -0.4370    1.7154   -1.0876 H         1 <0>         0.0657
     35 H4         -0.4514    1.7847    0.6909 H         1 <0>         0.0651
     36 H5          0.1034   -0.3488   -2.2466 H         1 <0>         0.1229
     37 H6          0.0588   -0.1826    2.0151 H         1 <0>         0.1234
     38 H7         -0.0536   -3.9145    2.3389 H         1 <0>         0.1060
     39 H8         -1.0828   -2.7666    4.3227 H         1 <0>         0.0687
     40 H9         -1.0656   -1.2411    3.4056 H         1 <0>         0.0625
     41 H10        -2.4410   -2.3541    1.6219 H         1 <0>         0.0703
     42 H11        -2.5748   -4.6074    3.6765 H         1 <0>         0.0504
     43 H12        -3.5141   -4.5221    2.1670 H         1 <0>         0.0506
     44 H13        -1.7425   -4.6838    2.1050 H         1 <0>         0.0705
     45 H14        -3.5111   -1.0142    3.4130 H         1 <0>         0.0499
     46 H15        -4.5469   -2.3791    2.9308 H         1 <0>         0.0533
     47 H16        -3.6076   -2.4645    4.4404 H         1 <0>         0.0529
     48 H17         0.9044   -0.4913    3.5167 H         1 <0>         0.1313
     49 H18         3.0115   -0.0352    4.7056 H         1 <0>         0.1335
     50 H19         4.1461   -4.1260    4.2570 H         1 <0>         0.1372
     51 H20         2.0335   -4.5806    3.0773 H         1 <0>         0.1309
     52 H21         1.9294   -4.6241   -0.8136 H         1 <0>         0.0587
     53 H22         1.9073   -4.5548    0.9649 H         1 <0>         0.0542
     54 H23         0.5448   -6.7174   -0.7011 H         1 <0>         0.1149
     55 H24         3.0531   -6.7572   -0.8379 H         1 <0>         0.0708
     56 H25         3.1144   -6.8465    0.9387 H         1 <0>         0.0715
     57 H26         4.2521   -9.0532   -0.8641 H         1 <0>         0.0567
     58 H27         4.2305   -8.9837    0.9144 H         1 <0>         0.0620
     59 H28         2.1342   -8.6847   -2.0290 H         1 <0>         0.3540
     60 H29         1.0217   -6.4988    2.1544 H         1 <0>         0.3637
     61 H30         1.1472   -3.2254   -2.8117 H         1 <0>         0.0677
     62 H31        -0.3974   -3.9841   -2.3569 H         1 <0>         0.0766
     63 H32        -0.3909   -2.4770   -3.3039 H         1 <0>         0.0661
@<TRIPOS>BOND
     1    1    2 1
     2    1   33 1
     3    1   34 1
     4    1   35 1
     5    2    7 ar
     6    2    3 ar
     7    3    4 ar
     8    3   36 1
     9    4    5 ar
    10    4   32 1
    11    5    6 ar
    12    5   20 1
    13    6    7 ar
    14    6    8 1
    15    7   37 1
    16    8    9 1
    17    8   13 1
    18    8   38 1
    19    9   10 1
    20    9   39 1
    21    9   40 1
    22   10   11 1
    23   10   12 1
    24   10   41 1
    25   11   42 1
    26   11   43 1
    27   11   44 1
    28   12   45 1
    29   12   46 1
    30   12   47 1
    31   13   18 ar
    32   13   14 ar
    33   14   15 ar
    34   14   48 1
    35   15   16 ar
    36   15   49 1
    37   16   17 ar
    38   16   19 1
    39   17   18 ar
    40   17   50 1
    41   18   51 1
    42   20   21 1
    43   21   22 1
    44   21   52 1
    45   21   53 1
    46   22   23 1
    47   22   31 1
    48   22   54 1
    49   23   24 1
    50   23   55 1
    51   23   56 1
    52   24   25 1
    53   24   26 1
    54   24   30 1
    55   26   27 1
    56   26   57 1
    57   26   58 1
    58   27   28 2
    59   27   29 1
    60   30   59 1
    61   31   60 1
    62   32   61 1
    63   32   62 1
    64   32   63 1
@<TRIPOS>MOLECULE
CHEMBL101774__2
   63    64     0     0     0
SMALL
USER_CHARGES

@<TRIPOS>ATOM
      1 C1         -0.2300    0.9930   -0.7096 C.3       1 <0>        -0.1130
      2 C2         -0.2656   -0.4900   -0.4441 C.ar      1 <0>        -0.0879
      3 C3         -0.4658   -1.3736   -1.4888 C.ar      1 <0>        -0.1132
      4 C4         -0.4993   -2.7333   -1.2480 C.ar      1 <0>        -0.0944
      5 C5         -0.3314   -3.2123    0.0433 C.ar      1 <0>         0.0967
      6 C6         -0.1303   -2.3239    1.0894 C.ar      1 <0>        -0.0821
      7 C7         -0.0924   -0.9650    0.8425 C.ar      1 <0>        -0.1107
      8 C8          0.0523   -2.8407    2.4932 C.3       1 <0>        -0.0120
      9 C9          1.3526   -2.2839    3.0765 C.3       1 <0>        -0.1031
     10 C10         1.6016   -2.9053    4.4523 C.3       1 <0>        -0.0963
     11 C11         1.8386   -4.4089    4.2974 C.3       1 <0>        -0.1528
     12 C12         2.8329   -2.2578    5.0891 C.3       1 <0>        -0.1466
     13 C13        -1.1098   -2.4005    3.3458 C.ar      1 <0>        -0.0707
     14 C14        -1.2819   -1.0608    3.6403 C.ar      1 <0>        -0.0881
     15 C15        -2.3474   -0.6559    4.4216 C.ar      1 <0>        -0.1531
     16 C16        -3.2428   -1.5925    4.9095 C.ar      1 <0>         0.0908
     17 C17        -3.0694   -2.9340    4.6139 C.ar      1 <0>        -0.1490
     18 C18        -2.0061   -3.3360    3.8280 C.ar      1 <0>        -0.0798
     19 F1         -4.2846   -1.1979    5.6738 F         1 <0>        -0.1429
     20 O1         -0.3645   -4.5496    0.2829 O.3       1 <0>        -0.3182
     21 C19         0.8775   -5.2526    0.2098 C.3       1 <0>         0.0346
     22 C20         0.6426   -6.7351    0.5067 C.3       1 <0>         0.1192
     23 C21         1.9863   -7.4654    0.5514 C.3       1 <0>        -0.1848
     24 C22         1.7626   -8.9197    0.9705 C.3       1 <0>         0.1400
     25 H1          1.2219   -8.9462    1.9165 H         1 <0>         0.0946
     26 C23         3.1147   -9.6165    1.1362 C.3       1 <0>        -0.2191
     27 C24         2.8997  -11.0105    1.6667 C.2       1 <0>         0.4907
     28 O2          1.7699  -11.4098    1.8914 O.co2     1 <0>        -0.6802
     29 O3          3.8557  -11.7391    1.8712 O.co2     1 <0>        -0.7128
     30 O4          0.9999   -9.5927   -0.0332 O.3       1 <0>        -0.5269
     31 O5         -0.1741   -7.3028   -0.5193 O.3       1 <0>        -0.5313
     32 C25        -0.7185   -3.6957   -2.3868 C.3       1 <0>        -0.1148
     33 H2          0.7930    1.2983   -0.9295 H         1 <0>         0.0695
     34 H3         -0.8694    1.2251   -1.5614 H         1 <0>         0.0658
     35 H4         -0.5878    1.5283    0.1699 H         1 <0>         0.0652
     36 H5         -0.5964   -1.0003   -2.4938 H         1 <0>         0.1233
     37 H6          0.0682   -0.2730    1.6561 H         1 <0>         0.1242
     38 H7          0.0986   -3.9296    2.4763 H         1 <0>         0.1003
     39 H8          2.1821   -2.5270    2.4125 H         1 <0>         0.0672
     40 H9          1.2720   -1.2015    3.1760 H         1 <0>         0.0652
     41 H10         0.7329   -2.7382    5.0891 H         1 <0>         0.0720
     42 H11         2.7073   -4.5761    3.6606 H         1 <0>         0.0549
     43 H12         2.0160   -4.8516    5.2776 H         1 <0>         0.0565
     44 H13         0.9614   -4.8702    3.8438 H         1 <0>         0.0578
     45 H14         2.6640   -1.1867    5.1994 H         1 <0>         0.0514
     46 H15         3.0103   -2.7005    6.0692 H         1 <0>         0.0549
     47 H16         3.7016   -2.4250    4.4523 H         1 <0>         0.0539
     48 H17        -0.5831   -0.3304    3.2599 H         1 <0>         0.1301
     49 H18        -2.4815    0.3908    4.6518 H         1 <0>         0.1323
     50 H19        -3.7670   -3.6656    4.9942 H         1 <0>         0.1353
     51 H20        -1.8732   -4.3819    3.5936 H         1 <0>         0.1350
     52 H21         1.2979   -5.1445   -0.7901 H         1 <0>         0.0529
     53 H22         1.5717   -4.8409    0.9423 H         1 <0>         0.0591
     54 H23         0.1410   -6.8379    1.4689 H         1 <0>         0.1047
     55 H24         2.4475   -7.4385   -0.4358 H         1 <0>         0.0653
     56 H25         2.6418   -6.9763    1.2720 H         1 <0>         0.0764
     57 H26         3.6173   -9.6687    0.1705 H         1 <0>         0.0567
     58 H27         3.7307   -9.0523    1.8364 H         1 <0>         0.0614
     59 H28         1.4215   -9.6081   -0.9033 H         1 <0>         0.3505
     60 H29         0.2108   -7.2466   -1.4046 H         1 <0>         0.3635
     61 H30         0.2437   -3.9795   -2.8129 H         1 <0>         0.0667
     62 H31        -1.2291   -4.5851   -2.0177 H         1 <0>         0.0795
     63 H32        -1.3288   -3.2183   -3.1535 H         1 <0>         0.0653
@<TRIPOS>BOND
     1    1    2 1
     2    1   33 1
     3    1   34 1
     4    1   35 1
     5    2    7 ar
     6    2    3 ar
     7    3    4 ar
     8    3   36 1
     9    4    5 ar
    10    4   32 1
    11    5    6 ar
    12    5   20 1
    13    6    7 ar
    14    6    8 1
    15    7   37 1
    16    8    9 1
    17    8   13 1
    18    8   38 1
    19    9   10 1
    20    9   39 1
    21    9   40 1
    22   10   11 1
    23   10   12 1
    24   10   41 1
    25   11   42 1
    26   11   43 1
    27   11   44 1
    28   12   45 1
    29   12   46 1
    30   12   47 1
    31   13   18 ar
    32   13   14 ar
    33   14   15 ar
    34   14   48 1
    35   15   16 ar
    36   15   49 1
    37   16   17 ar
    38   16   19 1
    39   17   18 ar
    40   17   50 1
    41   18   51 1
    42   20   21 1
    43   21   22 1
    44   21   52 1
    45   21   53 1
    46   22   23 1
    47   22   31 1
    48   22   54 1
    49   23   24 1
    50   23   55 1
    51   23   56 1
    52   24   25 1
    53   24   26 1
    54   24   30 1
    55   26   27 1
    56   26   57 1
    57   26   58 1
    58   27   28 2
    59   27   29 1
    60   30   59 1
    61   31   60 1
    62   32   61 1
    63   32   62 1
    64   32   63 1
@<TRIPOS>MOLECULE
CHEMBL101774__3
   63    64     0     0     0
SMALL
USER_CHARGES

@<TRIPOS>ATOM
      1 C1         -0.2257    0.9943   -0.7085 C.3       1 <0>        -0.1130
      2 C2         -0.2632   -0.4887   -0.4434 C.ar      1 <0>        -0.0878
      3 C3         -0.4647   -1.3718   -1.4883 C.ar      1 <0>        -0.1128
      4 C4         -0.5000   -2.7315   -1.2479 C.ar      1 <0>        -0.0951
      5 C5         -0.3324   -3.2111    0.0433 C.ar      1 <0>         0.0962
      6 C6         -0.1299   -2.3232    1.0896 C.ar      1 <0>        -0.0814
      7 C7         -0.0904   -0.9643    0.8431 C.ar      1 <0>        -0.1110
      8 C8          0.0523   -2.8407    2.4932 C.3       1 <0>        -0.0121
      9 C9          1.3526   -2.2846    3.0770 C.3       1 <0>        -0.1037
     10 C10         1.6012   -2.9066    4.4525 C.3       1 <0>        -0.0958
     11 C11         1.8379   -4.4102    4.2971 C.3       1 <0>        -0.1546
     12 C12         2.8327   -2.2597    5.0898 C.3       1 <0>        -0.1469
     13 C13        -1.1098   -2.4005    3.3458 C.ar      1 <0>        -0.0708
     14 C14        -1.2819   -1.0608    3.6403 C.ar      1 <0>        -0.0887
     15 C15        -2.3474   -0.6559    4.4216 C.ar      1 <0>        -0.1540
     16 C16        -3.2428   -1.5925    4.9095 C.ar      1 <0>         0.0905
     17 C17        -3.0694   -2.9340    4.6139 C.ar      1 <0>        -0.1496
     18 C18        -2.0061   -3.3360    3.8280 C.ar      1 <0>        -0.0783
     19 F1         -4.2846   -1.1979    5.6738 F         1 <0>        -0.1432
     20 O1         -0.3671   -4.5484    0.2825 O.3       1 <0>        -0.3180
     21 C19         0.8739   -5.2530    0.2089 C.3       1 <0>         0.0353
     22 C20         0.6372   -6.7353    0.5054 C.3       1 <0>         0.1164
     23 C21         1.9412   -7.5101    0.3050 C.3       1 <0>        -0.1840
     24 C22         1.6770   -9.0069    0.4796 C.3       1 <0>         0.1375
     25 H1          1.2115   -9.1830    1.4493 H         1 <0>         0.1041
     26 C23         3.0005   -9.7707    0.4029 C.3       1 <0>        -0.2185
     27 C24         2.7569  -11.2286    0.6966 C.2       1 <0>         0.4906
     28 O2          1.6292  -11.6204    0.9443 O.co2     1 <0>        -0.6799
     29 O3          3.6874  -12.0163    0.6866 O.co2     1 <0>        -0.7125
     30 O4          0.8044   -9.4607   -0.5571 O.3       1 <0>        -0.5401
     31 O5          0.1962   -6.8863    1.8563 O.3       1 <0>        -0.5434
     32 C25        -0.7206   -3.6933   -2.3869 C.3       1 <0>        -0.1151
     33 H2          0.7977    1.2983   -0.9284 H         1 <0>         0.0695
     34 H3         -0.8650    1.2275   -1.5600 H         1 <0>         0.0658
     35 H4         -0.5827    1.5298    0.1712 H         1 <0>         0.0652
     36 H5         -0.5951   -0.9980   -2.4931 H         1 <0>         0.1236
     37 H6          0.0713   -0.2728    1.6568 H         1 <0>         0.1241
     38 H7          0.0983   -3.9296    2.4759 H         1 <0>         0.1032
     39 H8          2.1822   -2.5276    2.4130 H         1 <0>         0.0666
     40 H9          1.2723   -1.2021    3.1769 H         1 <0>         0.0649
     41 H10         0.7325   -2.7394    5.0893 H         1 <0>         0.0724
     42 H11         2.7066   -4.5774    3.6603 H         1 <0>         0.0545
     43 H12         2.0150   -4.8534    5.2770 H         1 <0>         0.0572
     44 H13         0.9606   -4.8710    3.8431 H         1 <0>         0.0597
     45 H14         2.6641   -1.1886    5.2005 H         1 <0>         0.0515
     46 H15         3.0098   -2.7029    6.0697 H         1 <0>         0.0548
     47 H16         3.7014   -2.4269    4.4530 H         1 <0>         0.0537
     48 H17        -0.5831   -0.3304    3.2599 H         1 <0>         0.1296
     49 H18        -2.4815    0.3908    4.6518 H         1 <0>         0.1319
     50 H19        -3.7670   -3.6656    4.9942 H         1 <0>         0.1351
     51 H20        -1.8732   -4.3819    3.5936 H         1 <0>         0.1376
     52 H21         1.2943   -5.1452   -0.7910 H         1 <0>         0.0593
     53 H22         1.5688   -4.8424    0.9414 H         1 <0>         0.0537
     54 H23        -0.1241   -7.1240   -0.1709 H         1 <0>         0.1146
     55 H24         2.3242   -7.3233   -0.6983 H         1 <0>         0.0709
     56 H25         2.6753   -7.1824    1.0410 H         1 <0>         0.0719
     57 H26         3.4225   -9.6671   -0.5967 H         1 <0>         0.0568
     58 H27         3.6976   -9.3641    1.1356 H         1 <0>         0.0621
     59 H28         1.1552   -9.3351   -1.4495 H         1 <0>         0.3540
     60 H29         0.8257   -6.5606    2.5142 H         1 <0>         0.3643
     61 H30         0.2412   -3.9783   -2.8133 H         1 <0>         0.0683
     62 H31        -1.2322   -4.5822   -2.0179 H         1 <0>         0.0764
     63 H32        -1.3305   -3.2150   -3.1533 H         1 <0>         0.0664
@<TRIPOS>BOND
     1    1    2 1
     2    1   33 1
     3    1   34 1
     4    1   35 1
     5    2    7 ar
     6    2    3 ar
     7    3    4 ar
     8    3   36 1
     9    4    5 ar
    10    4   32 1
    11    5    6 ar
    12    5   20 1
    13    6    7 ar
    14    6    8 1
    15    7   37 1
    16    8    9 1
    17    8   13 1
    18    8   38 1
    19    9   10 1
    20    9   39 1
    21    9   40 1
    22   10   11 1
    23   10   12 1
    24   10   41 1
    25   11   42 1
    26   11   43 1
    27   11   44 1
    28   12   45 1
    29   12   46 1
    30   12   47 1
    31   13   18 ar
    32   13   14 ar
    33   14   15 ar
    34   14   48 1
    35   15   16 ar
    36   15   49 1
    37   16   17 ar
    38   16   19 1
    39   17   18 ar
    40   17   50 1
    41   18   51 1
    42   20   21 1
    43   21   22 1
    44   21   52 1
    45   21   53 1
    46   22   23 1
    47   22   31 1
    48   22   54 1
    49   23   24 1
    50   23   55 1
    51   23   56 1
    52   24   25 1
    53   24   26 1
    54   24   30 1
    55   26   27 1
    56   26   57 1
    57   26   58 1
    58   27   28 2
    59   27   29 1
    60   30   59 1
    61   31   60 1
    62   32   61 1
    63   32   62 1
    64   32   63 1
@<TRIPOS>MOLECULE
CHEMBL250180
   68    70     0     0     0
SMALL
USER_CHARGES

@<TRIPOS>ATOM
      1 C1          0.5914   -2.4124    0.0617 C.3       1 <0>        -0.1454
      2 C2          0.0637   -0.9828    0.1989 C.3       1 <0>        -0.0299
      3 C3          0.6129   -0.1247   -0.9425 C.3       1 <0>        -0.1474
      4 C4         -1.4421   -0.9952    0.1383 C.2       1 <0>        -0.1608
      5 C5         -2.3168   -0.4297    1.0901 C.2       1 <0>         0.0438
      6 N1         -3.5546   -0.6442    0.6867 N.2       1 <0>        -0.2380
      7 N2         -3.5055   -1.3467   -0.5239 N.pl3     1 <0>        -0.3176
      8 C6         -2.1973   -1.5465   -0.8433 C.2       1 <0>         0.2596
      9 O1         -1.7320   -2.1864   -1.9466 O.3       1 <0>        -0.2825
     10 C7         -1.6568   -1.4261   -3.1542 C.3       1 <0>         0.0230
     11 C8         -1.1604   -2.3219   -4.2909 C.3       1 <0>         0.1204
     12 H1         -0.2131   -2.7794   -4.0056 H         1 <0>         0.1116
     13 C9         -0.9609   -1.4807   -5.5532 C.3       1 <0>        -0.1846
     14 C10        -0.3472   -2.3493   -6.6532 C.3       1 <0>         0.1404
     15 H2          0.5717   -2.8059   -6.2854 H         1 <0>         0.0963
     16 C11        -0.0325   -1.4808   -7.8728 C.3       1 <0>        -0.2194
     17 C12         0.6830   -2.3095   -8.9084 C.2       1 <0>         0.4909
     18 O2          0.9194   -3.4857   -8.6911 O.co2     1 <0>        -0.6801
     19 O3          1.0256   -1.8037   -9.9635 O.co2     1 <0>        -0.7120
     20 O4         -1.2727   -3.3732   -7.0235 O.3       1 <0>        -0.5264
     21 O5         -2.1251   -3.3445   -4.5474 O.3       1 <0>        -0.5292
     22 C13        -4.6103   -1.7664   -1.2777 C.ar      1 <0>         0.1255
     23 C14        -5.7228   -0.9442   -1.3974 C.ar      1 <0>        -0.0783
     24 C15        -6.8103   -1.3595   -2.1404 C.ar      1 <0>        -0.1403
     25 C16        -6.7919   -2.5951   -2.7655 C.ar      1 <0>         0.1063
     26 C17        -5.6834   -3.4168   -2.6469 C.ar      1 <0>        -0.1311
     27 C18        -4.5913   -3.0023   -1.9102 C.ar      1 <0>        -0.0780
     28 F1         -7.8569   -2.9998   -3.4916 F         1 <0>        -0.1325
     29 C19        -1.9168    0.2778    2.3230 C.2       1 <0>         0.6045
     30 O6         -0.7453    0.3233    2.6449 O.2       1 <0>        -0.5136
     31 N3         -2.8504    0.8732    3.0914 N.am      1 <0>        -0.7183
     32 C20        -2.4535    1.5751    4.3145 C.3       1 <0>         0.1251
     33 C21        -3.6947    2.1562    4.9946 C.3       1 <0>        -0.0926
     34 C22        -3.2865    2.8783    6.2528 C.ar      1 <0>        -0.0825
     35 C23        -3.2260    2.1952    7.4530 C.ar      1 <0>        -0.1133
     36 C24        -2.8515    2.8575    8.6071 C.ar      1 <0>        -0.1185
     37 C25        -2.5371    4.2029    8.5609 C.ar      1 <0>        -0.1216
     38 C26        -2.5967    4.8858    7.3605 C.ar      1 <0>        -0.1184
     39 C27        -2.9670    4.2224    6.2056 C.ar      1 <0>        -0.1133
     40 H3          1.6809   -2.3965    0.0349 H         1 <0>         0.0581
     41 H4          0.2575   -3.0061    0.9126 H         1 <0>         0.0507
     42 H5          0.2116   -2.8529   -0.8601 H         1 <0>         0.0651
     43 H6          0.3855   -0.5667    1.1536 H         1 <0>         0.1069
     44 H7          0.3252   -0.5635   -1.8979 H         1 <0>         0.0551
     45 H8          0.2049    0.8833   -0.8681 H         1 <0>         0.0508
     46 H9          1.7000   -0.0826   -0.8748 H         1 <0>         0.0626
     47 H10        -2.6451   -1.0389   -3.4020 H         1 <0>         0.0559
     48 H11        -0.9647   -0.5951   -3.0179 H         1 <0>         0.0761
     49 H12        -1.9236   -1.0956   -5.8891 H         1 <0>         0.0659
     50 H13        -0.2931   -0.6478   -5.3330 H         1 <0>         0.0787
     51 H14        -0.9612   -1.0957   -8.2940 H         1 <0>         0.0568
     52 H15         0.6028   -0.6479   -7.5716 H         1 <0>         0.0621
     53 H16        -2.1151   -3.0388   -7.3607 H         1 <0>         0.3504
     54 H17        -2.9941   -3.0091   -4.8072 H         1 <0>         0.3630
     55 H18        -5.7378    0.0192   -0.9095 H         1 <0>         0.1423
     56 H19        -7.6758   -0.7203   -2.2338 H         1 <0>         0.1457
     57 H20        -5.6710   -4.3802   -3.1347 H         1 <0>         0.1510
     58 H21        -3.7250   -3.6412   -1.8219 H         1 <0>         0.1511
     59 H22        -3.7850    0.8369    2.8346 H         1 <0>         0.4077
     60 H23        -1.9620    0.8762    4.9913 H         1 <0>         0.0740
     61 H24        -1.7654    2.3823    4.0632 H         1 <0>         0.0741
     62 H25        -4.1862    2.8551    4.3178 H         1 <0>         0.0813
     63 H26        -4.3828    1.3491    5.2459 H         1 <0>         0.0815
     64 H27        -3.4717    1.1441    7.4892 H         1 <0>         0.1227
     65 H28        -2.8050    2.3240    9.5450 H         1 <0>         0.1224
     66 H29        -2.2452    4.7205    9.4627 H         1 <0>         0.1213
     67 H30        -2.3514    5.9369    7.3244 H         1 <0>         0.1225
     68 H31        -3.0100    4.7551    5.2671 H         1 <0>         0.1227
@<TRIPOS>BOND
     1    1    2 1
     2    1   40 1
     3    1   41 1
     4    1   42 1
     5    2    3 1
     6    2    4 1
     7    2   43 1
     8    3   44 1
     9    3   45 1
    10    3   46 1
    11    4    8 2
    12    4    5 1
    13    5    6 2
    14    5   29 1
    15    6    7 1
    16    7    8 1
    17    7   22 1
    18    8    9 1
    19    9   10 1
    20   10   11 1
    21   10   47 1
    22   10   48 1
    23   11   12 1
    24   11   13 1
    25   11   21 1
    26   13   14 1
    27   13   49 1
    28   13   50 1
    29   14   15 1
    30   14   16 1
    31   14   20 1
    32   16   17 1
    33   16   51 1
    34   16   52 1
    35   17   18 2
    36   17   19 1
    37   20   53 1
    38   21   54 1
    39   22   27 ar
    40   22   23 ar
    41   23   24 ar
    42   23   55 1
    43   24   25 ar
    44   24   56 1
    45   25   26 ar
    46   25   28 1
    47   26   27 ar
    48   26   57 1
    49   27   58 1
    50   29   30 2
    51   29   31 am
    52   31   32 1
    53   31   59 1
    54   32   33 1
    55   32   60 1
    56   32   61 1
    57   33   34 1
    58   33   62 1
    59   33   63 1
    60   34   39 ar
    61   34   35 ar
    62   35   36 ar
    63   35   64 1
    64   36   37 ar
    65   36   65 1
    66   37   38 ar
    67   37   66 1
    68   38   39 ar
    69   38   67 1
    70   39   68 1
@<TRIPOS>MOLECULE
CHEMBL427854
   65    67     0     0     0
SMALL
USER_CHARGES

@<TRIPOS>ATOM
      1 C1         -0.5230    0.6702    0.9572 C.3       1 <0>        -0.1730
      2 C2         -0.2051   -0.7841    0.6039 C.3       1 <0>         0.0937
      3 N1          0.3815   -0.8439   -0.7372 N.pl3     1 <0>        -0.4068
      4 C3         -0.2928   -1.1012   -1.8769 C.2       1 <0>         0.0819
      5 C4          0.5882   -1.0729   -2.9203 C.2       1 <0>        -0.1408
      6 C5          1.8605   -0.7843   -2.3905 C.2       1 <0>        -0.0818
      7 C6          1.7091   -0.6406   -1.0395 C.2       1 <0>        -0.0588
      8 C7          2.7742   -0.3280   -0.0805 C.2       1 <0>         0.6020
      9 O1          3.0625    0.8312    0.1522 O.2       1 <0>        -0.4984
     10 N2          3.4334   -1.3246    0.5430 N.am      1 <0>        -0.6611
     11 C8          4.3151   -1.0329    1.5883 C.ar      1 <0>         0.1442
     12 C9          4.8804    0.2317    1.6896 C.ar      1 <0>        -0.1450
     13 C10         5.7510    0.5165    2.7233 C.ar      1 <0>        -0.0995
     14 C11         6.0599   -0.4558    3.6568 C.ar      1 <0>        -0.1403
     15 C12         5.4988   -1.7159    3.5589 C.ar      1 <0>        -0.0990
     16 C13         4.6231   -2.0055    2.5309 C.ar      1 <0>        -0.1518
     17 C14         3.1454   -0.6527   -3.1669 C.3       1 <0>        -0.0865
     18 C15         0.2640   -1.3046   -4.3505 C.ar      1 <0>        -0.0093
     19 C16        -0.1946   -2.5516   -4.7696 C.ar      1 <0>        -0.0814
     20 C17        -0.4953   -2.7626   -6.0998 C.ar      1 <0>        -0.1508
     21 C18        -0.3412   -1.7368   -7.0179 C.ar      1 <0>         0.0942
     22 C19         0.1149   -0.4955   -6.6055 C.ar      1 <0>        -0.1510
     23 C20         0.4120   -0.2741   -5.2762 C.ar      1 <0>        -0.0777
     24 F1         -0.6363   -1.9477   -8.3193 F         1 <0>        -0.1416
     25 C21        -1.7710   -1.3748   -1.9813 C.3       1 <0>        -0.0530
     26 C22        -2.5203   -0.0569   -2.1879 C.3       1 <0>        -0.1453
     27 C23        -4.0211   -0.3347   -2.2940 C.3       1 <0>         0.1142
     28 H1         -4.2006   -1.0650   -3.0830 H         1 <0>         0.0982
     29 C24        -4.7581    0.9647   -2.6244 C.3       1 <0>        -0.1866
     30 C25        -6.2411    0.6658   -2.8533 C.3       1 <0>         0.1378
     31 H2         -6.3430   -0.0994   -3.6228 H         1 <0>         0.0927
     32 C26        -6.9547    1.9416   -3.3051 C.3       1 <0>        -0.2195
     33 C27        -8.3868    1.6215   -3.6483 C.2       1 <0>         0.4905
     34 O2         -8.7985    0.4789   -3.5414 O.co2     1 <0>        -0.6813
     35 O3         -9.1336    2.5051   -4.0328 O.co2     1 <0>        -0.7130
     36 O4         -6.8261    0.1984   -1.6362 O.3       1 <0>        -0.5282
     37 O5         -4.4991   -0.8504   -1.0500 O.3       1 <0>        -0.5420
     38 H3          0.3944    1.2583    0.9354 H         1 <0>         0.0668
     39 H4         -1.2306    1.0737    0.2329 H         1 <0>         0.0685
     40 H5         -0.9594    0.7146    1.9550 H         1 <0>         0.0778
     41 H6          0.5025   -1.1877    1.3282 H         1 <0>         0.0847
     42 H7         -1.1225   -1.3723    0.6257 H         1 <0>         0.1020
     43 H8          3.2962   -2.2442    0.2665 H         1 <0>         0.4147
     44 H9          4.6398    0.9914    0.9607 H         1 <0>         0.1621
     45 H10         6.1911    1.4995    2.8024 H         1 <0>         0.1252
     46 H11         6.7412   -0.2306    4.4640 H         1 <0>         0.1218
     47 H12         5.7422   -2.4730    4.2896 H         1 <0>         0.1255
     48 H13         4.1815   -2.9883    2.4577 H         1 <0>         0.1244
     49 H14         3.2783    0.3839   -3.4766 H         1 <0>         0.0695
     50 H15         3.9828   -0.9541   -2.5374 H         1 <0>         0.0567
     51 H16         3.1046   -1.2928   -4.0482 H         1 <0>         0.0705
     52 H17        -0.3143   -3.3520   -4.0545 H         1 <0>         0.1311
     53 H18        -0.8508   -3.7290   -6.4255 H         1 <0>         0.1350
     54 H19         0.2340    0.3014   -7.3246 H         1 <0>         0.1345
     55 H20         0.7633    0.6952   -4.9547 H         1 <0>         0.1309
     56 H21        -1.9592   -2.0362   -2.8271 H         1 <0>         0.0903
     57 H22        -2.1183   -1.8502   -1.0640 H         1 <0>         0.0800
     58 H23        -2.3320    0.6045   -1.3422 H         1 <0>         0.0626
     59 H24        -2.1730    0.4185   -3.1053 H         1 <0>         0.0754
     60 H25        -4.6522    1.6636   -1.7948 H         1 <0>         0.0613
     61 H26        -4.3327    1.4044   -3.5265 H         1 <0>         0.0740
     62 H27        -6.9294    2.6764   -2.5004 H         1 <0>         0.0557
     63 H28        -6.4525    2.3472   -4.1834 H         1 <0>         0.0610
     64 H29        -6.7717    0.8297   -0.9057 H         1 <0>         0.3493
     65 H30        -4.3720   -0.2518   -0.3012 H         1 <0>         0.3629
@<TRIPOS>BOND
     1    1    2 1
     2    1   38 1
     3    1   39 1
     4    1   40 1
     5    2    3 1
     6    2   41 1
     7    2   42 1
     8    3    7 1
     9    3    4 1
    10    4    5 2
    11    4   25 1
    12    5    6 1
    13    5   18 1
    14    6    7 2
    15    6   17 1
    16    7    8 1
    17    8    9 2
    18    8   10 am
    19   10   11 1
    20   10   43 1
    21   11   16 ar
    22   11   12 ar
    23   12   13 ar
    24   12   44 1
    25   13   14 ar
    26   13   45 1
    27   14   15 ar
    28   14   46 1
    29   15   16 ar
    30   15   47 1
    31   16   48 1
    32   17   49 1
    33   17   50 1
    34   17   51 1
    35   18   23 ar
    36   18   19 ar
    37   19   20 ar
    38   19   52 1
    39   20   21 ar
    40   20   53 1
    41   21   22 ar
    42   21   24 1
    43   22   23 ar
    44   22   54 1
    45   23   55 1
    46   25   26 1
    47   25   56 1
    48   25   57 1
    49   26   27 1
    50   26   58 1
    51   26   59 1
    52   27   28 1
    53   27   29 1
    54   27   37 1
    55   29   30 1
    56   29   60 1
    57   29   61 1
    58   30   31 1
    59   30   32 1
    60   30   36 1
    61   32   33 1
    62   32   62 1
    63   32   63 1
    64   33   34 2
    65   33   35 1
    66   36   64 1
    67   37   65 1
@<TRIPOS>MOLECULE
CHEMBL358623
   58    59     0     0     0
SMALL
USER_CHARGES

@<TRIPOS>ATOM
      1 C1         -0.0187    1.5258    0.0104 C.3       1 <0>        -0.1457
      2 C2          0.0021   -0.0041    0.0020 C.3       1 <0>        -0.0111
      3 C3          0.7421   -0.5109    1.2415 C.3       1 <0>        -0.1456
      4 C4         -1.4117   -0.5257    0.0127 C.2       1 <0>        -0.1532
      5 C5         -2.0306   -1.3213   -0.9097 C.2       1 <0>        -0.0706
      6 C6         -3.4044   -1.6883   -0.6708 C.2       1 <0>        -0.0722
      7 C7         -3.9978   -1.2015    0.4871 C.2       1 <0>        -0.1078
      8 S1         -2.6811   -0.2613    1.2356 S.3       1 <0>         0.0764
      9 C8         -5.3664   -1.4138    0.9757 C.2       1 <0>        -0.0900
     10 C9         -5.7577   -0.8593    2.1210 C.2       1 <0>        -0.1089
     11 C10        -4.7964   -0.0138    2.9160 C.3       1 <0>        -0.1355
     12 C11        -7.1621   -1.0770    2.6224 C.3       1 <0>        -0.1165
     13 C12        -4.1502   -2.5462   -1.6185 C.ar      1 <0>        -0.0296
     14 C13        -4.4177   -2.0935   -2.9110 C.ar      1 <0>        -0.0665
     15 C14        -5.1133   -2.8970   -3.7904 C.ar      1 <0>        -0.1491
     16 C15        -5.5462   -4.1517   -3.3922 C.ar      1 <0>         0.0992
     17 C16        -5.2832   -4.6059   -2.1098 C.ar      1 <0>        -0.1520
     18 C17        -4.5834   -3.8127   -1.2245 C.ar      1 <0>        -0.0810
     19 F1         -6.2274   -4.9346   -4.2572 F         1 <0>        -0.1397
     20 C18        -1.3152   -1.7900   -2.1136 C.2       1 <0>        -0.1134
     21 C19        -1.3322   -3.0767   -2.4364 C.2       1 <0>        -0.1582
     22 C20        -0.6022   -3.5550   -3.6650 C.3       1 <0>         0.1426
     23 H1         -1.3214   -3.9391   -4.3884 H         1 <0>         0.1063
     24 C21         0.3746   -4.6670   -3.2772 C.3       1 <0>        -0.1798
     25 C22         1.0244   -5.2379   -4.5392 C.3       1 <0>         0.1375
     26 H2          0.2484   -5.5633   -5.2321 H         1 <0>         0.0929
     27 C23         1.9058   -6.4309   -4.1639 C.3       1 <0>        -0.2187
     28 C24         2.4480   -7.0688   -5.4169 C.2       1 <0>         0.4906
     29 O1          2.1565   -6.6116   -6.5090 O.co2     1 <0>        -0.6809
     30 O2          3.1782   -8.0421   -5.3387 O.co2     1 <0>        -0.7134
     31 O3          1.8255   -4.2305   -5.1600 O.3       1 <0>        -0.5277
     32 O4          0.1205   -2.4665   -4.2437 O.3       1 <0>        -0.5379
     33 H3          1.0039    1.9031    0.0027 H         1 <0>         0.0635
     34 H4         -0.5459    1.8868   -0.8726 H         1 <0>         0.0591
     35 H5         -0.5289    1.8773    0.9072 H         1 <0>         0.0555
     36 H6          0.5123   -0.3556   -0.8948 H         1 <0>         0.0918
     37 H7          0.7568   -1.6008    1.2356 H         1 <0>         0.0592
     38 H8          1.7647   -0.1336    1.2338 H         1 <0>         0.0636
     39 H9          0.2319   -0.1594    2.1383 H         1 <0>         0.0554
     40 H10        -6.0553   -2.0197    0.4060 H         1 <0>         0.1329
     41 H11        -4.4711    0.8327    2.3112 H         1 <0>         0.0793
     42 H12        -5.2919    0.3515    3.8155 H         1 <0>         0.0734
     43 H13        -3.9308   -0.6140    3.1963 H         1 <0>         0.0789
     44 H14        -7.1887   -1.9648    3.2543 H         1 <0>         0.0725
     45 H15        -7.4799   -0.2096    3.2009 H         1 <0>         0.0672
     46 H16        -7.8334   -1.2142    1.7747 H         1 <0>         0.0667
     47 H17        -4.0810   -1.1157   -3.2222 H         1 <0>         0.1307
     48 H18        -5.3211   -2.5475   -4.7909 H         1 <0>         0.1364
     49 H19        -5.6231   -5.5845   -1.8042 H         1 <0>         0.1357
     50 H20        -4.3750   -4.1694   -0.2266 H         1 <0>         0.1303
     51 H21        -0.7782   -1.0854   -2.7313 H         1 <0>         0.1269
     52 H22        -1.8692   -3.7813   -1.8188 H         1 <0>         0.1123
     53 H23         1.1462   -4.2609   -2.6231 H         1 <0>         0.0633
     54 H24        -0.1641   -5.4583   -2.7560 H         1 <0>         0.0740
     55 H25         2.7337   -6.0898   -3.5423 H         1 <0>         0.0562
     56 H26         1.3136   -7.1607   -3.6117 H         1 <0>         0.0607
     57 H27         2.5380   -3.8938   -4.5995 H         1 <0>         0.3496
     58 H28         0.7797   -2.0746   -3.6546 H         1 <0>         0.3645
@<TRIPOS>BOND
     1    1    2 1
     2    1   33 1
     3    1   34 1
     4    1   35 1
     5    2    3 1
     6    2    4 1
     7    2   36 1
     8    3   37 1
     9    3   38 1
    10    3   39 1
    11    4    8 1
    12    4    5 2
    13    5    6 1
    14    5   20 1
    15    6    7 2
    16    6   13 1
    17    7    8 1
    18    7    9 1
    19    9   10 2
    20    9   40 1
    21   10   11 1
    22   10   12 1
    23   11   41 1
    24   11   42 1
    25   11   43 1
    26   12   44 1
    27   12   45 1
    28   12   46 1
    29   13   18 ar
    30   13   14 ar
    31   14   15 ar
    32   14   47 1
    33   15   16 ar
    34   15   48 1
    35   16   17 ar
    36   16   19 1
    37   17   18 ar
    38   17   49 1
    39   18   50 1
    40   20   21 2
    41   20   51 1
    42   21   22 1
    43   21   52 1
    44   22   23 1
    45   22   24 1
    46   22   32 1
    47   24   25 1
    48   24   53 1
    49   24   54 1
    50   25   26 1
    51   25   27 1
    52   25   31 1
    53   27   28 1
    54   27   55 1
    55   27   56 1
    56   28   29 2
    57   28   30 1
    58   31   57 1
    59   32   58 1
@<TRIPOS>MOLECULE
CHEMBL296765
   38    39     0     0     0
SMALL
USER_CHARGES

@<TRIPOS>ATOM
      1 C1         -0.0157    1.3058    0.0092 C.2       1 <0>        -0.1630
      2 C2          0.0021   -0.0041    0.0020 C.2       1 <0>        -0.1613
      3 C3          1.3172   -0.7397   -0.0145 C.3       1 <0>         0.0830
      4 O1          1.2769   -1.8088    0.9329 O.3       1 <0>        -0.2925
      5 C4          2.3918   -2.5766    1.0440 C.ar      1 <0>         0.1695
      6 C5          3.5034   -2.3051    0.2632 C.ar      1 <0>        -0.1987
      7 C6          4.6386   -3.0873    0.3766 C.ar      1 <0>         0.0165
      8 C7          4.6725   -4.1457    1.2696 C.ar      1 <0>        -0.1376
      9 C8          3.5725   -4.4286    2.0544 C.ar      1 <0>         0.0167
     10 C9          2.4236   -3.6417    1.9520 C.ar      1 <0>        -0.0774
     11 C10         1.2457   -3.9350    2.7935 C.2       1 <0>        -0.0832
     12 C11         0.7684   -5.1708    2.8586 C.2       1 <0>        -0.1460
     13 C12        -0.4334   -5.4701    3.7172 C.3       1 <0>         0.1458
     14 C13        -1.5170   -6.1364    2.8653 C.3       1 <0>        -0.1478
     15 C14        -2.7525   -6.4014    3.7315 C.3       1 <0>         0.1042
     16 H1         -3.5311   -6.8643    3.1252 H         1 <0>         0.0816
     17 C15        -3.2618   -5.0668    4.2906 C.3       1 <0>        -0.2043
     18 C16        -2.1018   -4.3555    4.9520 C.2       1 <0>         0.4975
     19 O2         -2.2076   -3.8947    6.0640 O.2       1 <0>        -0.4510
     20 O3         -0.9459   -4.2500    4.2643 O.3       1 <0>        -0.3674
     21 O4         -2.4036   -7.2727    4.8091 O.3       1 <0>        -0.5636
     22 Cl1         3.6201   -5.7565    3.1716 Cl        1 <0>        -0.0368
     23 Cl2         6.0275   -2.7412   -0.6056 Cl        1 <0>        -0.0485
     24 H2          0.9122    1.8585    0.0033 H         1 <0>         0.1009
     25 H3         -0.9582    1.8330    0.0166 H         1 <0>         0.1106
     26 H4         -0.9258   -0.5567    0.0079 H         1 <0>         0.1218
     27 H5          1.4950   -1.1439   -1.0111 H         1 <0>         0.0769
     28 H6          2.1214   -0.0522    0.2475 H         1 <0>         0.0723
     29 H7          3.4836   -1.4816   -0.4353 H         1 <0>         0.1469
     30 H8          5.5625   -4.7519    1.3519 H         1 <0>         0.1490
     31 H9          0.7730   -3.1433    3.3557 H         1 <0>         0.1396
     32 H10         1.2410   -5.9626    2.2964 H         1 <0>         0.1357
     33 H11        -0.1442   -6.1391    4.5276 H         1 <0>         0.0975
     34 H12        -1.7864   -5.4780    2.0394 H         1 <0>         0.0982
     35 H13        -1.1403   -7.0800    2.4706 H         1 <0>         0.1005
     36 H14        -3.6540   -4.4541    3.4789 H         1 <0>         0.1191
     37 H15        -4.0464   -5.2513    5.0245 H         1 <0>         0.1086
     38 H16        -3.1404   -7.4832    5.3990 H         1 <0>         0.3869
@<TRIPOS>BOND
     1    1    2 2
     2    1   24 1
     3    1   25 1
     4    2    3 1
     5    2   26 1
     6    3    4 1
     7    3   27 1
     8    3   28 1
     9    4    5 1
    10    5   10 ar
    11    5    6 ar
    12    6    7 ar
    13    6   29 1
    14    7    8 ar
    15    7   23 1
    16    8    9 ar
    17    8   30 1
    18    9   10 ar
    19    9   22 1
    20   10   11 1
    21   11   12 2
    22   11   31 1
    23   12   13 1
    24   12   32 1
    25   13   20 1
    26   13   14 1
    27   13   33 1
    28   14   15 1
    29   14   34 1
    30   14   35 1
    31   15   16 1
    32   15   17 1
    33   15   21 1
    34   17   18 1
    35   17   36 1
    36   17   37 1
    37   18   19 2
    38   18   20 1
    39   21   38 1
@<TRIPOS>MOLECULE
CHEMBL296765__1
   38    39     0     0     0
SMALL
USER_CHARGES

@<TRIPOS>ATOM
      1 C1         -0.0157    1.3058    0.0092 C.2       1 <0>        -0.1623
      2 C2          0.0021   -0.0041    0.0020 C.2       1 <0>        -0.1624
      3 C3          1.3172   -0.7397   -0.0145 C.3       1 <0>         0.0830
      4 O1          1.2769   -1.8088    0.9329 O.3       1 <0>        -0.2947
      5 C4          2.3918   -2.5766    1.0440 C.ar      1 <0>         0.1718
      6 C5          3.5034   -2.3051    0.2632 C.ar      1 <0>        -0.1998
      7 C6          4.6386   -3.0873    0.3766 C.ar      1 <0>         0.0199
      8 C7          4.6725   -4.1457    1.2696 C.ar      1 <0>        -0.1386
      9 C8          3.5725   -4.4286    2.0544 C.ar      1 <0>         0.0196
     10 C9          2.4236   -3.6417    1.9520 C.ar      1 <0>        -0.0825
     11 C10         1.2457   -3.9350    2.7935 C.2       1 <0>        -0.0779
     12 C11         0.7684   -5.1708    2.8586 C.2       1 <0>        -0.1326
     13 C12        -0.4334   -5.4701    3.7172 C.3       1 <0>         0.1456
     14 C13        -1.5589   -6.0304    2.8436 C.3       1 <0>        -0.1517
     15 C14        -2.7641   -6.3722    3.7255 C.3       1 <0>         0.1094
     16 H1         -3.1156   -5.4713    4.2285 H         1 <0>         0.0686
     17 C15        -2.3355   -7.4102    4.7705 C.3       1 <0>        -0.2048
     18 C16        -1.0980   -6.8946    5.4720 C.2       1 <0>         0.4918
     19 O2         -1.0226   -6.8923    6.6779 O.2       1 <0>        -0.4466
     20 O3         -0.0811   -6.4375    4.7123 O.3       1 <0>        -0.3612
     21 O4         -3.8126   -6.9088    2.9164 O.3       1 <0>        -0.5547
     22 Cl1         3.6201   -5.7565    3.1716 Cl        1 <0>        -0.0294
     23 Cl2         6.0275   -2.7412   -0.6056 Cl        1 <0>        -0.0468
     24 H2          0.9122    1.8585    0.0033 H         1 <0>         0.1010
     25 H3         -0.9582    1.8330    0.0166 H         1 <0>         0.1109
     26 H4         -0.9258   -0.5567    0.0079 H         1 <0>         0.1224
     27 H5          1.4950   -1.1439   -1.0111 H         1 <0>         0.0777
     28 H6          2.1214   -0.0522    0.2475 H         1 <0>         0.0728
     29 H7          3.4836   -1.4816   -0.4353 H         1 <0>         0.1476
     30 H8          5.5625   -4.7519    1.3519 H         1 <0>         0.1499
     31 H9          0.7730   -3.1433    3.3557 H         1 <0>         0.1326
     32 H10         1.2410   -5.9626    2.2964 H         1 <0>         0.1288
     33 H11        -0.7706   -4.5545    4.2031 H         1 <0>         0.0852
     34 H12        -1.8498   -5.2854    2.1031 H         1 <0>         0.1012
     35 H13        -1.2120   -6.9310    2.3369 H         1 <0>         0.0935
     36 H14        -3.1362   -7.5535    5.4960 H         1 <0>         0.1082
     37 H15        -2.1113   -8.3564    4.2781 H         1 <0>         0.1188
     38 H16        -4.6083   -7.1477    3.4113 H         1 <0>         0.3859
@<TRIPOS>BOND
     1    1    2 2
     2    1   24 1
     3    1   25 1
     4    2    3 1
     5    2   26 1
     6    3    4 1
     7    3   27 1
     8    3   28 1
     9    4    5 1
    10    5   10 ar
    11    5    6 ar
    12    6    7 ar
    13    6   29 1
    14    7    8 ar
    15    7   23 1
    16    8    9 ar
    17    8   30 1
    18    9   10 ar
    19    9   22 1
    20   10   11 1
    21   11   12 2
    22   11   31 1
    23   12   13 1
    24   12   32 1
    25   13   20 1
    26   13   14 1
    27   13   33 1
    28   14   15 1
    29   14   34 1
    30   14   35 1
    31   15   16 1
    32   15   17 1
    33   15   21 1
    34   17   18 1
    35   17   36 1
    36   17   37 1
    37   18   19 2
    38   18   20 1
    39   21   38 1
@<TRIPOS>MOLECULE
CHEMBL295717
   50    52     0     0     0
SMALL
USER_CHARGES

@<TRIPOS>ATOM
      1 C1         -0.5777    1.4044    0.0266 C.3       1 <0>        -0.1173
      2 C2         -0.2986   -0.0765    0.0092 C.ar      1 <0>        -0.0775
      3 C3         -0.1961   -0.7431   -1.2014 C.ar      1 <0>        -0.1175
      4 C4          0.0594   -2.0985   -1.2348 C.ar      1 <0>        -0.0679
      5 C5          0.2166   -2.8080   -0.0449 C.ar      1 <0>        -0.0562
      6 C6          0.1125   -2.1307    1.1869 C.ar      1 <0>        -0.0382
      7 C7         -0.1414   -0.7574    1.1978 C.ar      1 <0>        -0.1172
      8 C8          0.2757   -2.8641    2.4516 C.2       1 <0>        -0.0974
      9 C9          0.1755   -2.2134    3.6236 C.2       1 <0>        -0.1098
     10 C10         0.3389   -2.9478    4.8902 C.ar      1 <0>        -0.0504
     11 C11         0.6039   -4.3202    4.8768 C.ar      1 <0>        -0.1009
     12 C12         0.7557   -5.0014    6.0660 C.ar      1 <0>        -0.1065
     13 C13         0.6456   -4.3289    7.2719 C.ar      1 <0>        -0.0352
     14 C14         0.3827   -2.9692    7.2925 C.ar      1 <0>        -0.1087
     15 C15         0.2353   -2.2744    6.1106 C.ar      1 <0>        -0.0963
     16 Cl1         0.8376   -5.1945    8.7644 Cl        1 <0>        -0.0689
     17 C16         0.4895   -4.2575   -0.0749 C.2       1 <0>        -0.0847
     18 C17         1.5482   -4.7202   -0.7289 C.2       1 <0>        -0.1570
     19 C18         1.7585   -6.2061   -0.8666 C.3       1 <0>         0.1439
     20 C19         1.9009   -6.5671   -2.3476 C.3       1 <0>        -0.1467
     21 C20         2.0731   -8.0830   -2.4865 C.3       1 <0>         0.1040
     22 H1          2.1620   -8.3454   -3.5407 H         1 <0>         0.0817
     23 C21         0.8450   -8.7788   -1.8856 C.3       1 <0>        -0.2047
     24 C22         0.6299   -8.2393   -0.4885 C.2       1 <0>         0.4975
     25 O1          0.4592   -8.9855    0.4464 O.2       1 <0>        -0.4504
     26 O2          0.6338   -6.9012   -0.3167 O.3       1 <0>        -0.3693
     27 O3          3.2497   -8.4971   -1.7893 O.3       1 <0>        -0.5638
     28 C23         0.1681   -2.8123   -2.5575 C.3       1 <0>        -0.1163
     29 H2          0.3646    1.9519    0.0064 H         1 <0>         0.0721
     30 H3         -1.1723    1.6723   -0.8467 H         1 <0>         0.0678
     31 H4         -1.1271    1.6600    0.9326 H         1 <0>         0.0672
     32 H5         -0.3175   -0.1976   -2.1256 H         1 <0>         0.1238
     33 H6         -0.2183   -0.2297    2.1370 H         1 <0>         0.1260
     34 H7          0.4760   -3.9252    2.4386 H         1 <0>         0.1257
     35 H8         -0.0248   -1.1522    3.6366 H         1 <0>         0.1260
     36 H9          0.6893   -4.8458    3.9373 H         1 <0>         0.1347
     37 H10         0.9605   -6.0617    6.0572 H         1 <0>         0.1356
     38 H11         0.2975   -2.4511    8.2363 H         1 <0>         0.1355
     39 H12         0.0351   -1.2132    6.1280 H         1 <0>         0.1347
     40 H13        -0.1719   -4.9422    0.4351 H         1 <0>         0.1318
     41 H14         2.2586   -4.0318   -1.1621 H         1 <0>         0.1349
     42 H15         2.6628   -6.4968   -0.3320 H         1 <0>         0.0948
     43 H16         1.0074   -6.2516   -2.8864 H         1 <0>         0.0978
     44 H17         2.7734   -6.0624   -2.7626 H         1 <0>         0.1005
     45 H18        -0.0318   -8.5708   -2.4989 H         1 <0>         0.1192
     46 H19         1.0168   -9.8543   -1.8419 H         1 <0>         0.1088
     47 H20         3.4203   -9.4478   -1.8356 H         1 <0>         0.3872
     48 H21         1.2158   -2.8742   -2.8520 H         1 <0>         0.0713
     49 H22        -0.2426   -3.8175   -2.4628 H         1 <0>         0.0708
     50 H23        -0.3901   -2.2615   -3.3146 H         1 <0>         0.0658
@<TRIPOS>BOND
     1    1    2 1
     2    1   29 1
     3    1   30 1
     4    1   31 1
     5    2    7 ar
     6    2    3 ar
     7    3    4 ar
     8    3   32 1
     9    4    5 ar
    10    4   28 1
    11    5    6 ar
    12    5   17 1
    13    6    7 ar
    14    6    8 1
    15    7   33 1
    16    8    9 2
    17    8   34 1
    18    9   10 1
    19    9   35 1
    20   10   15 ar
    21   10   11 ar
    22   11   12 ar
    23   11   36 1
    24   12   13 ar
    25   12   37 1
    26   13   14 ar
    27   13   16 1
    28   14   15 ar
    29   14   38 1
    30   15   39 1
    31   17   18 2
    32   17   40 1
    33   18   19 1
    34   18   41 1
    35   19   26 1
    36   19   20 1
    37   19   42 1
    38   20   21 1
    39   20   43 1
    40   20   44 1
    41   21   22 1
    42   21   23 1
    43   21   27 1
    44   23   24 1
    45   23   45 1
    46   23   46 1
    47   24   25 2
    48   24   26 1
    49   27   47 1
    50   28   48 1
    51   28   49 1
    52   28   50 1
@<TRIPOS>MOLECULE
CHEMBL295717__1
   50    52     0     0     0
SMALL
USER_CHARGES

@<TRIPOS>ATOM
      1 C1         -0.4727    1.4561    0.0624 C.3       1 <0>        -0.1181
      2 C2         -0.2202   -0.0290    0.0173 C.ar      1 <0>        -0.0744
      3 C3         -0.1593   -0.6797   -1.2047 C.ar      1 <0>        -0.1178
      4 C4          0.0714   -2.0387   -1.2634 C.ar      1 <0>        -0.0648
      5 C5          0.2454   -2.7679   -0.0879 C.ar      1 <0>        -0.0605
      6 C6          0.1836   -2.1068    1.1555 C.ar      1 <0>        -0.0349
      7 C7         -0.0458   -0.7296    1.1920 C.ar      1 <0>        -0.1178
      8 C8          0.3650   -2.8610    2.4053 C.2       1 <0>        -0.1001
      9 C9          0.3051   -2.2258    3.5884 C.2       1 <0>        -0.1066
     10 C10         0.4867   -2.9811    4.8402 C.ar      1 <0>        -0.0515
     11 C11         0.7271   -4.3575    4.8010 C.ar      1 <0>        -0.1008
     12 C12         0.8962   -5.0583    5.9763 C.ar      1 <0>        -0.1069
     13 C13         0.8277   -4.4016    7.1939 C.ar      1 <0>        -0.0346
     14 C14         0.5893   -3.0380    7.2401 C.ar      1 <0>        -0.1085
     15 C15         0.4251   -2.3237    6.0721 C.ar      1 <0>        -0.0954
     16 Cl1         1.0411   -5.2918    8.6689 Cl        1 <0>        -0.0681
     17 C16         0.4919   -4.2213   -0.1450 C.2       1 <0>        -0.0794
     18 C17         1.5259   -4.6927   -0.8314 C.2       1 <0>        -0.1418
     19 C18         1.7064   -6.1798   -0.9955 C.3       1 <0>         0.1433
     20 C19         1.6912   -6.5353   -2.4846 C.3       1 <0>        -0.1511
     21 C20         1.9163   -8.0417   -2.6493 C.3       1 <0>         0.1092
     22 H1          1.1204   -8.5874   -2.1425 H         1 <0>         0.0683
     23 C21         3.2693   -8.4118   -2.0284 C.3       1 <0>        -0.2049
     24 C22         3.3107   -7.8635   -0.6188 C.2       1 <0>         0.4913
     25 O1          3.6477   -8.5599    0.3093 O.2       1 <0>        -0.4463
     26 O2          2.9604   -6.5747   -0.4280 O.3       1 <0>        -0.3633
     27 O3          1.9168   -8.3766   -4.0386 O.3       1 <0>        -0.5546
     28 C23         0.1350   -2.7351   -2.5984 C.3       1 <0>        -0.1178
     29 H2          0.4783    1.9875    0.0265 H         1 <0>         0.0728
     30 H3         -1.0839    1.7468   -0.7920 H         1 <0>         0.0684
     31 H4         -0.9950    1.7080    0.9853 H         1 <0>         0.0677
     32 H5         -0.2938   -0.1189   -2.1179 H         1 <0>         0.1249
     33 H6         -0.0903   -0.2142    2.1401 H         1 <0>         0.1269
     34 H7          0.5462   -3.9252    2.3724 H         1 <0>         0.1248
     35 H8          0.1239   -1.1616    3.6214 H         1 <0>         0.1266
     36 H9          0.7801   -4.8709    3.8523 H         1 <0>         0.1339
     37 H10         1.0820   -6.1218    5.9475 H         1 <0>         0.1356
     38 H11         0.5365   -2.5322    8.1929 H         1 <0>         0.1358
     39 H12         0.2441   -1.2596    6.1093 H         1 <0>         0.1350
     40 H13        -0.1687   -4.9018    0.3715 H         1 <0>         0.1250
     41 H14         2.2378   -4.0104   -1.2721 H         1 <0>         0.1281
     42 H15         0.8963   -6.7030   -0.4876 H         1 <0>         0.0833
     43 H16         0.7270   -6.2626   -2.9137 H         1 <0>         0.1009
     44 H17         2.4846   -5.9909   -2.9966 H         1 <0>         0.0939
     45 H18         3.3782   -9.4961   -2.0043 H         1 <0>         0.1085
     46 H19         4.0757   -7.9740   -2.6168 H         1 <0>         0.1189
     47 H20         2.0546   -9.3170   -4.2164 H         1 <0>         0.3864
     48 H21         1.1733   -2.8058   -2.9222 H         1 <0>         0.0730
     49 H22        -0.2859   -3.7363   -2.5062 H         1 <0>         0.0701
     50 H23        -0.4366   -2.1668   -3.3322 H         1 <0>         0.0675
@<TRIPOS>BOND
     1    1    2 1
     2    1   29 1
     3    1   30 1
     4    1   31 1
     5    2    7 ar
     6    2    3 ar
     7    3    4 ar
     8    3   32 1
     9    4    5 ar
    10    4   28 1
    11    5    6 ar
    12    5   17 1
    13    6    7 ar
    14    6    8 1
    15    7   33 1
    16    8    9 2
    17    8   34 1
    18    9   10 1
    19    9   35 1
    20   10   15 ar
    21   10   11 ar
    22   11   12 ar
    23   11   36 1
    24   12   13 ar
    25   12   37 1
    26   13   14 ar
    27   13   16 1
    28   14   15 ar
    29   14   38 1
    30   15   39 1
    31   17   18 2
    32   17   40 1
    33   18   19 1
    34   18   41 1
    35   19   26 1
    36   19   20 1
    37   19   42 1
    38   20   21 1
    39   20   43 1
    40   20   44 1
    41   21   22 1
    42   21   23 1
    43   21   27 1
    44   23   24 1
    45   23   45 1
    46   23   46 1
    47   24   25 2
    48   24   26 1
    49   27   47 1
    50   28   48 1
    51   28   49 1
    52   28   50 1
@<TRIPOS>MOLECULE
CHEMBL318102
   55    56     0     0     0
SMALL
USER_CHARGES

@<TRIPOS>ATOM
      1 C1         -0.0925    1.5466   -0.0983 C.3       1 <0>        -0.1585
      2 C2         -0.0195    0.0215   -0.0007 C.3       1 <0>        -0.0674
      3 C3          0.8416   -0.3720    1.2013 C.3       1 <0>        -0.1579
      4 C4         -1.4081   -0.5380    0.1716 C.2       1 <0>        -0.0287
      5 C5         -1.8901   -1.4458   -0.7175 C.2       1 <0>        -0.0730
      6 C6         -3.2530   -1.9948   -0.5485 C.ar      1 <0>        -0.0432
      7 C7         -3.5592   -2.7789    0.5651 C.ar      1 <0>        -0.0771
      8 C8         -4.8315   -3.2883    0.7178 C.ar      1 <0>        -0.1491
      9 C9         -5.8053   -3.0235   -0.2323 C.ar      1 <0>         0.0987
     10 C10        -5.5066   -2.2460   -1.3401 C.ar      1 <0>        -0.1518
     11 C11        -4.2393   -1.7261   -1.4992 C.ar      1 <0>        -0.0763
     12 F1         -7.0501   -3.5254   -0.0781 F         1 <0>        -0.1402
     13 C12        -1.0517   -1.8847   -1.8541 C.ar      1 <0>        -0.0393
     14 C13        -0.6772   -0.9721   -2.8419 C.ar      1 <0>        -0.0793
     15 C14         0.1045   -1.3867   -3.8995 C.ar      1 <0>        -0.1523
     16 C15         0.5180   -2.7070   -3.9832 C.ar      1 <0>         0.0950
     17 C16         0.1488   -3.6173   -3.0055 C.ar      1 <0>        -0.1511
     18 C17        -0.6273   -3.2119   -1.9400 C.ar      1 <0>        -0.0757
     19 F2          1.2835   -3.1080   -5.0216 F         1 <0>        -0.1412
     20 C18        -2.2367   -0.1041    1.2949 C.2       1 <0>        -0.1363
     21 C19        -1.7287    0.7079    2.2245 C.2       1 <0>        -0.1707
     22 C20        -2.5490    1.0749    3.4342 C.3       1 <0>         0.1364
     23 H1         -2.7623    2.1437    3.4180 H         1 <0>         0.1084
     24 C21        -1.7680    0.7298    4.7038 C.3       1 <0>        -0.1798
     25 C22        -2.5456    1.2154    5.9287 C.3       1 <0>         0.1371
     26 H2         -2.7590    2.2793    5.8254 H         1 <0>         0.0935
     27 C23        -1.7093    0.9830    7.1887 C.3       1 <0>        -0.2190
     28 C24        -2.4210    1.5716    8.3796 C.2       1 <0>         0.4903
     29 O1         -3.4973    2.1256    8.2340 O.co2     1 <0>        -0.6809
     30 O2         -1.9205    1.4938    9.4886 O.co2     1 <0>        -0.7130
     31 O3         -3.7732    0.4911    6.0315 O.3       1 <0>        -0.5275
     32 O4         -3.7768    0.3438    3.4168 O.3       1 <0>        -0.5367
     33 H3          0.9167    1.9578   -0.1237 H         1 <0>         0.0591
     34 H4         -0.6223    1.8275   -1.0085 H         1 <0>         0.0552
     35 H5         -0.6239    1.9411    0.7678 H         1 <0>         0.0708
     36 H6          0.4236   -0.3801   -0.9120 H         1 <0>         0.0843
     37 H7          0.3497   -0.0534    2.1204 H         1 <0>         0.0705
     38 H8          0.9727   -1.4540    1.2157 H         1 <0>         0.0557
     39 H9          1.8156    0.1111    1.1242 H         1 <0>         0.0588
     40 H10        -2.8009   -2.9864    1.3056 H         1 <0>         0.1338
     41 H11        -5.0695   -3.8950    1.5790 H         1 <0>         0.1378
     42 H12        -6.2690   -2.0430   -2.0776 H         1 <0>         0.1347
     43 H13        -4.0089   -1.1161   -2.3601 H         1 <0>         0.1305
     44 H14        -0.9995    0.0567   -2.7780 H         1 <0>         0.1341
     45 H15         0.3948   -0.6815   -4.6643 H         1 <0>         0.1359
     46 H16         0.4734   -4.6450   -3.0756 H         1 <0>         0.1356
     47 H17        -0.9101   -3.9208   -1.1760 H         1 <0>         0.1331
     48 H18        -3.2600   -0.4406    1.3727 H         1 <0>         0.1297
     49 H19        -0.7297    1.1020    2.1096 H         1 <0>         0.1356
     50 H20        -1.6318   -0.3499    4.7644 H         1 <0>         0.0640
     51 H21        -0.7938    1.2178    4.6750 H         1 <0>         0.0753
     52 H22        -1.5710   -0.0874    7.3407 H         1 <0>         0.0563
     53 H23        -0.7372    1.4622    7.0731 H         1 <0>         0.0612
     54 H24        -3.6593   -0.4644    6.1262 H         1 <0>         0.3499
     55 H25        -3.6630   -0.6164    3.4297 H         1 <0>         0.3647
@<TRIPOS>BOND
     1    1    2 1
     2    1   33 1
     3    1   34 1
     4    1   35 1
     5    2    3 1
     6    2    4 1
     7    2   36 1
     8    3   37 1
     9    3   38 1
    10    3   39 1
    11    4    5 2
    12    4   20 1
    13    5    6 1
    14    5   13 1
    15    6   11 ar
    16    6    7 ar
    17    7    8 ar
    18    7   40 1
    19    8    9 ar
    20    8   41 1
    21    9   10 ar
    22    9   12 1
    23   10   11 ar
    24   10   42 1
    25   11   43 1
    26   13   18 ar
    27   13   14 ar
    28   14   15 ar
    29   14   44 1
    30   15   16 ar
    31   15   45 1
    32   16   17 ar
    33   16   19 1
    34   17   18 ar
    35   17   46 1
    36   18   47 1
    37   20   21 2
    38   20   48 1
    39   21   22 1
    40   21   49 1
    41   22   23 1
    42   22   24 1
    43   22   32 1
    44   24   25 1
    45   24   50 1
    46   24   51 1
    47   25   26 1
    48   25   27 1
    49   25   31 1
    50   27   28 1
    51   27   52 1
    52   27   53 1
    53   28   29 2
    54   28   30 1
    55   31   54 1
    56   32   55 1
@<TRIPOS>MOLECULE
CHEMBL11891
   51    53     0     0     0
SMALL
USER_CHARGES

@<TRIPOS>ATOM
      1 C1          0.1462    1.3810   -0.2227 C.ar      1 <0>        -0.0634
      2 C2          1.3572    2.0324   -0.3258 C.ar      1 <0>        -0.1504
      3 C3          2.5371    1.3060   -0.3593 C.ar      1 <0>         0.1112
      4 C4          2.5074   -0.0779   -0.2895 C.ar      1 <0>        -0.1477
      5 C5          1.3022   -0.7399   -0.1857 C.ar      1 <0>        -0.0707
      6 C6          0.1102   -0.0132   -0.1515 C.ar      1 <0>        -0.0578
      7 C7         -1.1847   -0.7171   -0.0404 C.2       1 <0>        -0.0125
      8 C8         -1.6066   -1.5337   -1.0499 C.2       1 <0>         0.1576
      9 C9         -0.7750   -1.7126   -2.2442 C.2       1 <0>        -0.1514
     10 C10        -1.1303   -2.5955   -3.1775 C.2       1 <0>        -0.1251
     11 C11        -0.2191   -2.8626   -4.3478 C.3       1 <0>         0.1375
     12 H1         -0.7045   -2.5369   -5.2679 H         1 <0>         0.1166
     13 C12         0.0784   -4.3611   -4.4310 C.3       1 <0>        -0.1800
     14 C13         0.9001   -4.6488   -5.6891 C.3       1 <0>         0.1379
     15 H2          0.3757   -4.2607   -6.5623 H         1 <0>         0.0953
     16 C14         1.0915   -6.1594   -5.8389 C.3       1 <0>        -0.2192
     17 C15         1.7939   -6.4502   -7.1401 C.2       1 <0>         0.4908
     18 O1          2.1118   -5.5342   -7.8792 O.co2     1 <0>        -0.6806
     19 O2          2.0441   -7.6015   -7.4537 O.co2     1 <0>        -0.7120
     20 O3          2.1764   -4.0155   -5.5796 O.3       1 <0>        -0.5267
     21 O4          1.0032   -2.1432   -4.1737 O.3       1 <0>        -0.5331
     22 N1         -2.8309   -2.1993   -0.9448 N.pl3     1 <0>        -0.3315
     23 C16        -3.2295   -3.0336    0.0407 C.2       1 <0>         0.2369
     24 N2         -4.4396   -3.4320   -0.2541 N.2       1 <0>        -0.3285
     25 N3         -4.8329   -2.9067   -1.3579 N.2       1 <0>        -0.0353
     26 N4         -3.9147   -2.1396   -1.8386 N.2       1 <0>        -0.0677
     27 C17        -2.0229   -0.5368    1.1635 C.ar      1 <0>        -0.0798
     28 C18        -3.2740    0.0750    1.0612 C.ar      1 <0>        -0.0706
     29 C19        -4.0520    0.2402    2.1877 C.ar      1 <0>        -0.1478
     30 C20        -3.5943   -0.1998    3.4198 C.ar      1 <0>         0.1123
     31 C21        -2.3532   -0.8073    3.5273 C.ar      1 <0>        -0.1495
     32 C22        -1.5692   -0.9828    2.4066 C.ar      1 <0>        -0.0682
     33 F1         -4.3607   -0.0354    4.5202 F         1 <0>        -0.1351
     34 F2          3.7208    1.9494   -0.4609 F         1 <0>        -0.1359
     35 H3         -0.7724    1.9481   -0.1926 H         1 <0>         0.1340
     36 H4          1.3862    3.1106   -0.3809 H         1 <0>         0.1395
     37 H5          3.4299   -0.6389   -0.3167 H         1 <0>         0.1429
     38 H6          1.2801   -1.8183   -0.1318 H         1 <0>         0.1382
     39 H7          0.1252   -1.1289   -2.3677 H         1 <0>         0.1563
     40 H8         -2.0710   -3.1195   -3.0950 H         1 <0>         0.1148
     41 H9          0.6422   -4.6690   -3.5505 H         1 <0>         0.0649
     42 H10        -0.8589   -4.9157   -4.4745 H         1 <0>         0.0761
     43 H11         1.6926   -6.5334   -5.0101 H         1 <0>         0.0566
     44 H12         0.1188   -6.6512   -5.8332 H         1 <0>         0.0615
     45 H13         2.6996   -4.3132   -4.8228 H         1 <0>         0.3500
     46 H14         1.4897   -2.3824   -3.3729 H         1 <0>         0.3654
     47 H15        -2.6552   -3.3189    0.9097 H         1 <0>         0.2311
     48 H16        -3.6315    0.4185    0.1017 H         1 <0>         0.1310
     49 H17        -5.0196    0.7135    2.1098 H         1 <0>         0.1395
     50 H18        -2.0014   -1.1478    4.4899 H         1 <0>         0.1424
     51 H19        -0.6042   -1.4604    2.4907 H         1 <0>         0.1402
@<TRIPOS>BOND
     1    1    6 ar
     2    1    2 ar
     3    1   35 1
     4    2    3 ar
     5    2   36 1
     6    3    4 ar
     7    3   34 1
     8    4    5 ar
     9    4   37 1
    10    5    6 ar
    11    5   38 1
    12    6    7 1
    13    7    8 2
    14    7   27 1
    15    8    9 1
    16    8   22 1
    17    9   10 2
    18    9   39 1
    19   10   11 1
    20   10   40 1
    21   11   12 1
    22   11   13 1
    23   11   21 1
    24   13   14 1
    25   13   41 1
    26   13   42 1
    27   14   15 1
    28   14   16 1
    29   14   20 1
    30   16   17 1
    31   16   43 1
    32   16   44 1
    33   17   18 2
    34   17   19 1
    35   20   45 1
    36   21   46 1
    37   22   26 1
    38   22   23 1
    39   23   24 2
    40   23   47 1
    41   24   25 1
    42   25   26 2
    43   27   32 ar
    44   27   28 ar
    45   28   29 ar
    46   28   48 1
    47   29   30 ar
    48   29   49 1
    49   30   31 ar
    50   30   33 1
    51   31   32 ar
    52   31   50 1
    53   32   51 1
@<TRIPOS>MOLECULE
CHEMBL419542
   51    53     0     0     0
SMALL
USER_CHARGES

@<TRIPOS>ATOM
      1 C1         -0.0169    1.3918    0.0097 C.ar      1 <0>        -0.0649
      2 C2          1.1694    2.0950    0.0021 C.ar      1 <0>        -0.1513
      3 C3          2.3789    1.4183   -0.0135 C.ar      1 <0>         0.1103
      4 C4          2.4034    0.0326   -0.0216 C.ar      1 <0>        -0.1487
      5 C5          1.2231   -0.6805   -0.0137 C.ar      1 <0>        -0.0704
      6 C6          0.0021   -0.0041    0.0020 C.ar      1 <0>        -0.0641
      7 C7         -1.2670   -0.7635    0.0105 C.2       1 <0>         0.0142
      8 C8         -1.6053   -1.5336   -1.0570 C.2       1 <0>        -0.0386
      9 C9         -0.7148   -1.6111   -2.2136 C.2       1 <0>        -0.1360
     10 C10        -1.0471   -2.3674   -3.2621 C.2       1 <0>        -0.1666
     11 C11        -0.1291   -2.4474   -4.4545 C.3       1 <0>         0.1435
     12 H1         -0.6226   -2.0111   -5.3229 H         1 <0>         0.1141
     13 C12         0.2076   -3.9120   -4.7416 C.3       1 <0>        -0.1802
     14 C13         1.0369   -4.0028   -6.0242 C.3       1 <0>         0.1386
     15 H2          0.5026   -3.5121   -6.8377 H         1 <0>         0.0945
     16 C14         1.2678   -5.4730   -6.3792 C.3       1 <0>        -0.2187
     17 C15         1.9777   -5.5640   -7.7054 C.2       1 <0>         0.4911
     18 O1          2.2717   -4.5472   -8.3105 O.co2     1 <0>        -0.6814
     19 O2          2.2581   -6.6544   -8.1732 O.co2     1 <0>        -0.7124
     20 O3          2.2961   -3.3576   -5.8239 O.3       1 <0>        -0.5277
     21 O4          1.0740   -1.7273   -4.1786 O.3       1 <0>        -0.5332
     22 C16        -2.8984   -2.3074   -1.0483 C.3       1 <0>         0.0549
     23 N1         -2.6487   -3.7345   -1.3120 N.2       1 <0>        -0.1158
     24 N2         -3.2570   -4.0034   -2.3570 N.2       1 <0>        -0.0412
     25 N3         -3.9242   -2.8943   -2.8706 N.2       1 <0>        -0.0423
     26 N4         -3.7593   -1.8882   -2.1670 N.2       1 <0>        -0.1179
     27 C17        -2.1679   -0.6850    1.1808 C.ar      1 <0>        -0.0778
     28 C18        -3.4368   -0.1177    1.0512 C.ar      1 <0>        -0.0829
     29 C19        -4.2728   -0.0470    2.1456 C.ar      1 <0>        -0.1507
     30 C20        -3.8553   -0.5379    3.3726 C.ar      1 <0>         0.1081
     31 C21        -2.5963   -1.1018    3.5071 C.ar      1 <0>        -0.1496
     32 C22        -1.7546   -1.1832    2.4177 C.ar      1 <0>        -0.0619
     33 F1         -4.6782   -0.4661    4.4417 F         1 <0>        -0.1358
     34 F2          3.5381    2.1121   -0.0213 F         1 <0>        -0.1363
     35 H3         -0.9588    1.9199    0.0260 H         1 <0>         0.1348
     36 H4          1.1559    3.1749    0.0081 H         1 <0>         0.1393
     37 H5          3.3487   -0.4897   -0.0345 H         1 <0>         0.1421
     38 H6          1.2434   -1.7603   -0.0205 H         1 <0>         0.1381
     39 H7          0.2119   -1.0566   -2.2198 H         1 <0>         0.1478
     40 H8         -1.9738   -2.9220   -3.2558 H         1 <0>         0.1016
     41 H9          0.7792   -4.3233   -3.9095 H         1 <0>         0.0649
     42 H10        -0.7148   -4.4796   -4.8644 H         1 <0>         0.0779
     43 H11         1.8783   -5.9416   -5.6074 H         1 <0>         0.0567
     44 H12         0.3083   -5.9860   -6.4448 H         1 <0>         0.0626
     45 H13         2.8268   -3.7429   -5.1132 H         1 <0>         0.3498
     46 H14         1.5665   -2.0616   -3.4165 H         1 <0>         0.3650
     47 H15        -3.4152   -2.1763   -0.0976 H         1 <0>         0.1911
     48 H16        -3.7630    0.2655    0.0956 H         1 <0>         0.1414
     49 H17        -5.2546    0.3921    2.0465 H         1 <0>         0.1421
     50 H18        -2.2757   -1.4825    4.4655 H         1 <0>         0.1419
     51 H19        -0.7758   -1.6274    2.5223 H         1 <0>         0.1399
@<TRIPOS>BOND
     1    1    6 ar
     2    1    2 ar
     3    1   35 1
     4    2    3 ar
     5    2   36 1
     6    3    4 ar
     7    3   34 1
     8    4    5 ar
     9    4   37 1
    10    5    6 ar
    11    5   38 1
    12    6    7 1
    13    7    8 2
    14    7   27 1
    15    8    9 1
    16    8   22 1
    17    9   10 2
    18    9   39 1
    19   10   11 1
    20   10   40 1
    21   11   12 1
    22   11   13 1
    23   11   21 1
    24   13   14 1
    25   13   41 1
    26   13   42 1
    27   14   15 1
    28   14   16 1
    29   14   20 1
    30   16   17 1
    31   16   43 1
    32   16   44 1
    33   17   18 2
    34   17   19 1
    35   20   45 1
    36   21   46 1
    37   22   26 1
    38   22   23 1
    39   22   47 1
    40   23   24 2
    41   24   25 1
    42   25   26 2
    43   27   32 ar
    44   27   28 ar
    45   28   29 ar
    46   28   48 1
    47   29   30 ar
    48   29   49 1
    49   30   31 ar
    50   30   33 1
    51   31   32 ar
    52   31   50 1
    53   32   51 1
@<TRIPOS>MOLECULE
CHEMBL120897
   58    61     0     0     0
SMALL
USER_CHARGES

@<TRIPOS>ATOM
      1 C1         -0.0187    1.5258    0.0104 C.3       1 <0>        -0.1418
      2 C2          0.0021   -0.0041    0.0020 C.3       1 <0>        -0.0292
      3 C3          0.7421   -0.5109    1.2415 C.3       1 <0>        -0.1422
      4 C4         -1.4117   -0.5257    0.0127 C.2       1 <0>         0.0428
      5 C5         -2.4510    0.0464    0.6500 C.2       1 <0>        -0.1685
      6 C6         -3.5945   -0.7533    0.4098 C.2       1 <0>        -0.1160
      7 C7         -3.1844   -1.8090   -0.3883 C.2       1 <0>         0.0691
      8 N1         -1.8457   -1.6503   -0.6266 N.pl3     1 <0>        -0.4263
      9 C8         -1.0130   -2.5453   -1.4339 C.3       1 <0>         0.0944
     10 C9         -0.4254   -3.6395   -0.5403 C.3       1 <0>        -0.1312
     11 C10         0.4443   -4.5742   -1.3834 C.3       1 <0>         0.1137
     12 H1         -0.1408   -4.9621   -2.2173 H         1 <0>         0.0893
     13 C11         0.9329   -5.7379   -0.5168 C.3       1 <0>        -0.1519
     14 C12         1.8369   -6.6492   -1.3532 C.3       1 <0>         0.1046
     15 H2          2.1971   -7.4722   -0.7359 H         1 <0>         0.0820
     16 C13         3.0289   -5.8306   -1.8651 C.3       1 <0>        -0.2046
     17 C14         2.4953   -4.5873   -2.5425 C.2       1 <0>         0.4971
     18 O1          2.8832   -4.2623   -3.6396 O.2       1 <0>        -0.4493
     19 O2          1.5736   -3.8519   -1.8868 O.3       1 <0>        -0.3705
     20 O3          1.0990   -7.1691   -2.4610 O.3       1 <0>        -0.5638
     21 C15        -4.0373   -2.9026   -0.8949 C.ar      1 <0>        -0.0277
     22 C16        -3.9378   -3.3094   -2.2273 C.ar      1 <0>        -0.0887
     23 C17        -4.7366   -4.3317   -2.6947 C.ar      1 <0>        -0.1474
     24 C18        -5.6371   -4.9548   -1.8453 C.ar      1 <0>         0.1040
     25 C19        -5.7406   -4.5550   -0.5223 C.ar      1 <0>        -0.1467
     26 C20        -4.9426   -3.5381   -0.0421 C.ar      1 <0>        -0.0633
     27 F1         -6.4175   -5.9555   -2.3088 F         1 <0>        -0.1366
     28 C21        -4.9647   -0.5085    0.9144 C.ar      1 <0>         0.0436
     29 C22        -6.0652   -0.5384    0.0504 C.ar      1 <0>        -0.1626
     30 C23        -7.3238   -0.3048    0.5625 C.ar      1 <0>         0.1005
     31 N2         -7.4972   -0.0556    1.8470 N.ar      1 <0>        -0.4911
     32 C24        -6.4871   -0.0183    2.6956 C.ar      1 <0>         0.0997
     33 C25        -5.1958   -0.2467    2.2695 C.ar      1 <0>        -0.1661
     34 H3          1.0039    1.9031    0.0027 H         1 <0>         0.0618
     35 H4         -0.5459    1.8868   -0.8726 H         1 <0>         0.0584
     36 H5         -0.5289    1.8773    0.9072 H         1 <0>         0.0616
     37 H6          0.5123   -0.3556   -0.8948 H         1 <0>         0.0768
     38 H7          1.7647   -0.1336    1.2338 H         1 <0>         0.0615
     39 H8          0.2319   -0.1594    2.1383 H         1 <0>         0.0610
     40 H9          0.7568   -1.6008    1.2356 H         1 <0>         0.0527
     41 H10        -2.4181    0.9515    1.2383 H         1 <0>         0.1408
     42 H11        -1.6213   -3.0017   -2.2148 H         1 <0>         0.0952
     43 H12        -0.2037   -1.9754   -1.8903 H         1 <0>         0.1027
     44 H13         0.1829   -3.1831    0.2406 H         1 <0>         0.0884
     45 H14        -1.2347   -4.2094   -0.0839 H         1 <0>         0.0952
     46 H15         1.4948   -5.3483    0.3321 H         1 <0>         0.0976
     47 H16         0.0764   -6.3073   -0.1560 H         1 <0>         0.0996
     48 H17         3.6671   -5.5478   -1.0280 H         1 <0>         0.1196
     49 H18         3.6007   -6.4220   -2.5803 H         1 <0>         0.1096
     50 H19         1.6113   -7.7556   -3.0343 H         1 <0>         0.3879
     51 H20        -3.2369   -2.8241   -2.8903 H         1 <0>         0.1316
     52 H21        -4.6605   -4.6471   -3.7248 H         1 <0>         0.1391
     53 H22        -6.4446   -5.0437    0.1349 H         1 <0>         0.1393
     54 H23        -5.0206   -3.2306    0.9903 H         1 <0>         0.1333
     55 H24        -5.9305   -0.7409   -1.0019 H         1 <0>         0.1297
     56 H25        -8.1793   -0.3257   -0.0963 H         1 <0>         0.1532
     57 H26        -6.6749    0.1897    3.7385 H         1 <0>         0.1544
     58 H27        -4.3745   -0.2192    2.9703 H         1 <0>         0.1340
@<TRIPOS>BOND
     1    1    2 1
     2    1   34 1
     3    1   35 1
     4    1   36 1
     5    2    3 1
     6    2    4 1
     7    2   37 1
     8    3   38 1
     9    3   39 1
    10    3   40 1
    11    4    8 1
    12    4    5 2
    13    5    6 1
    14    5   41 1
    15    6    7 2
    16    6   28 1
    17    7    8 1
    18    7   21 1
    19    8    9 1
    20    9   10 1
    21    9   42 1
    22    9   43 1
    23   10   11 1
    24   10   44 1
    25   10   45 1
    26   11   12 1
    27   11   19 1
    28   11   13 1
    29   13   14 1
    30   13   46 1
    31   13   47 1
    32   14   15 1
    33   14   16 1
    34   14   20 1
    35   16   17 1
    36   16   48 1
    37   16   49 1
    38   17   18 2
    39   17   19 1
    40   20   50 1
    41   21   26 ar
    42   21   22 ar
    43   22   23 ar
    44   22   51 1
    45   23   24 ar
    46   23   52 1
    47   24   25 ar
    48   24   27 1
    49   25   26 ar
    50   25   53 1
    51   26   54 1
    52   28   33 ar
    53   28   29 ar
    54   29   30 ar
    55   29   55 1
    56   30   31 ar
    57   30   56 1
    58   31   32 ar
    59   32   33 ar
    60   32   57 1
    61   33   58 1
@<TRIPOS>MOLECULE
CHEMBL47006
   41    43     0     0     0
SMALL
USER_CHARGES

@<TRIPOS>ATOM
      1 C1         -0.0163    1.3513    0.0095 C.2       1 <0>        -0.1646
      2 C2          1.1833    2.0380    0.0017 C.2       1 <0>        -0.1200
      3 C3          2.3426    1.3358   -0.0131 C.2       1 <0>        -0.1679
      4 S1          1.7535   -0.3495   -0.0166 S.3       1 <0>         0.0606
      5 C4          0.0021   -0.0041    0.0020 C.2       1 <0>        -0.1589
      6 C5          3.7608    1.8454   -0.0244 C.3       1 <0>         0.1441
      7 O1          4.2221    1.9997    1.3193 O.3       1 <0>        -0.2906
      8 C6          5.4911    2.4542    1.4872 C.ar      1 <0>         0.1691
      9 C7          6.2746    2.7512    0.3842 C.ar      1 <0>        -0.1987
     10 C8          7.5668    3.2140    0.5557 C.ar      1 <0>         0.0168
     11 C9          8.0861    3.3835    1.8285 C.ar      1 <0>        -0.1361
     12 C10         7.3173    3.0917    2.9375 C.ar      1 <0>         0.0166
     13 C11         6.0097    2.6295    2.7757 C.ar      1 <0>        -0.0747
     14 C12         5.1796    2.3217    3.9581 C.2       1 <0>        -0.0840
     15 C13         5.6616    1.5517    4.9244 C.2       1 <0>        -0.1450
     16 C14         4.8148    1.2376    6.1308 C.3       1 <0>         0.1457
     17 C15         4.7123   -0.2803    6.3022 C.3       1 <0>        -0.1480
     18 C16         3.8170   -0.5962    7.5046 C.3       1 <0>         0.1045
     19 H1          3.7313   -1.6764    7.6222 H         1 <0>         0.0816
     20 C17         2.4275    0.0061    7.2602 C.3       1 <0>        -0.2045
     21 C18         2.5994    1.4653    6.8992 C.2       1 <0>         0.4978
     22 O2          1.9457    2.3220    7.4459 O.2       1 <0>        -0.4514
     23 O3          3.5031    1.7825    5.9490 O.3       1 <0>        -0.3671
     24 O4          4.3857   -0.0296    8.6869 O.3       1 <0>        -0.5636
     25 Cl1         7.9730    3.3054    4.5306 Cl        1 <0>        -0.0361
     26 Cl2         8.5430    3.5836   -0.8315 Cl        1 <0>        -0.0477
     27 H2         -0.9542    1.8866    0.0258 H         1 <0>         0.1385
     28 H3          1.1967    3.1179    0.0070 H         1 <0>         0.1367
     29 H4         -0.8275   -0.6955    0.0065 H         1 <0>         0.1894
     30 H5          4.3986    1.1333   -0.5480 H         1 <0>         0.0833
     31 H6          3.7967    2.8084   -0.5337 H         1 <0>         0.0910
     32 H7          5.8761    2.6210   -0.6111 H         1 <0>         0.1476
     33 H8          9.0961    3.7450    1.9539 H         1 <0>         0.1493
     34 H9          4.1802    2.7236    4.0357 H         1 <0>         0.1395
     35 H10         6.6611    1.1497    4.8468 H         1 <0>         0.1358
     36 H11         5.2706    1.6748    7.0192 H         1 <0>         0.0976
     37 H12         4.2814   -0.7196    5.4026 H         1 <0>         0.0984
     38 H13         5.7062   -0.6952    6.4699 H         1 <0>         0.1006
     39 H14         1.9380   -0.5200    6.4406 H         1 <0>         0.1190
     40 H15         1.8253   -0.0803    8.1646 H         1 <0>         0.1086
     41 H16         3.8694   -0.1915    9.4883 H         1 <0>         0.3868
@<TRIPOS>BOND
     1    1    5 2
     2    1    2 1
     3    1   27 1
     4    2    3 2
     5    2   28 1
     6    3    4 1
     7    3    6 1
     8    4    5 1
     9    5   29 1
    10    6    7 1
    11    6   30 1
    12    6   31 1
    13    7    8 1
    14    8   13 ar
    15    8    9 ar
    16    9   10 ar
    17    9   32 1
    18   10   11 ar
    19   10   26 1
    20   11   12 ar
    21   11   33 1
    22   12   13 ar
    23   12   25 1
    24   13   14 1
    25   14   15 2
    26   14   34 1
    27   15   16 1
    28   15   35 1
    29   16   23 1
    30   16   17 1
    31   16   36 1
    32   17   18 1
    33   17   37 1
    34   17   38 1
    35   18   19 1
    36   18   20 1
    37   18   24 1
    38   20   21 1
    39   20   39 1
    40   20   40 1
    41   21   22 2
    42   21   23 1
    43   24   41 1
@<TRIPOS>MOLECULE
CHEMBL47006__1
   41    43     0     0     0
SMALL
USER_CHARGES

@<TRIPOS>ATOM
      1 C1         -0.0163    1.3513    0.0095 C.2       1 <0>        -0.1660
      2 C2          1.1833    2.0380    0.0017 C.2       1 <0>        -0.1200
      3 C3          2.3426    1.3358   -0.0131 C.2       1 <0>        -0.1702
      4 S1          1.7535   -0.3495   -0.0166 S.3       1 <0>         0.0637
      5 C4          0.0021   -0.0041    0.0020 C.2       1 <0>        -0.1578
      6 C5          3.7608    1.8454   -0.0244 C.3       1 <0>         0.1444
      7 O1          4.2221    1.9997    1.3193 O.3       1 <0>        -0.2929
      8 C6          5.4911    2.4542    1.4872 C.ar      1 <0>         0.1716
      9 C7          6.2746    2.7512    0.3842 C.ar      1 <0>        -0.1999
     10 C8          7.5668    3.2140    0.5557 C.ar      1 <0>         0.0202
     11 C9          8.0861    3.3835    1.8285 C.ar      1 <0>        -0.1372
     12 C10         7.3173    3.0917    2.9375 C.ar      1 <0>         0.0196
     13 C11         6.0097    2.6295    2.7757 C.ar      1 <0>        -0.0798
     14 C12         5.1796    2.3217    3.9581 C.2       1 <0>        -0.0787
     15 C13         5.6616    1.5517    4.9244 C.2       1 <0>        -0.1316
     16 C14         4.8148    1.2376    6.1308 C.3       1 <0>         0.1455
     17 C15         4.6170   -0.2769    6.2362 C.3       1 <0>        -0.1518
     18 C16         3.7907   -0.5952    7.4864 C.3       1 <0>         0.1096
     19 H1          2.8169   -0.1109    7.4136 H         1 <0>         0.0684
     20 C17         4.5353   -0.0693    8.7202 C.3       1 <0>        -0.2048
     21 C18         4.8832    1.3837    8.4812 C.2       1 <0>         0.4918
     22 O2          4.6418    2.2256    9.3136 O.2       1 <0>        -0.4468
     23 O3          5.4707    1.7121    7.3120 O.3       1 <0>        -0.3612
     24 O4          3.6151   -2.0091    7.5969 O.3       1 <0>        -0.5544
     25 Cl1         7.9730    3.3054    4.5306 Cl        1 <0>        -0.0287
     26 Cl2         8.5430    3.5836   -0.8315 Cl        1 <0>        -0.0460
     27 H2         -0.9542    1.8866    0.0258 H         1 <0>         0.1385
     28 H3          1.1967    3.1179    0.0070 H         1 <0>         0.1365
     29 H4         -0.8275   -0.6955    0.0065 H         1 <0>         0.1897
     30 H5          4.3986    1.1333   -0.5480 H         1 <0>         0.0840
     31 H6          3.7967    2.8084   -0.5337 H         1 <0>         0.0915
     32 H7          5.8761    2.6210   -0.6111 H         1 <0>         0.1484
     33 H8          9.0961    3.7450    1.9539 H         1 <0>         0.1503
     34 H9          4.1802    2.7236    4.0357 H         1 <0>         0.1324
     35 H10         6.6611    1.1497    4.8468 H         1 <0>         0.1290
     36 H11         3.8453    1.7258    6.0319 H         1 <0>         0.0849
     37 H12         4.0920   -0.6375    5.3517 H         1 <0>         0.1015
     38 H13         5.5883   -0.7663    6.3079 H         1 <0>         0.0936
     39 H14         3.8961   -0.1543    9.5990 H         1 <0>         0.1081
     40 H15         5.4480   -0.6455    8.8719 H         1 <0>         0.1189
     41 H16         3.0997   -2.2823    8.3681 H         1 <0>         0.3857
@<TRIPOS>BOND
     1    1    5 2
     2    1    2 1
     3    1   27 1
     4    2    3 2
     5    2   28 1
     6    3    4 1
     7    3    6 1
     8    4    5 1
     9    5   29 1
    10    6    7 1
    11    6   30 1
    12    6   31 1
    13    7    8 1
    14    8   13 ar
    15    8    9 ar
    16    9   10 ar
    17    9   32 1
    18   10   11 ar
    19   10   26 1
    20   11   12 ar
    21   11   33 1
    22   12   13 ar
    23   12   25 1
    24   13   14 1
    25   14   15 2
    26   14   34 1
    27   15   16 1
    28   15   35 1
    29   16   23 1
    30   16   17 1
    31   16   36 1
    32   17   18 1
    33   17   37 1
    34   17   38 1
    35   18   19 1
    36   18   20 1
    37   18   24 1
    38   20   21 1
    39   20   39 1
    40   20   40 1
    41   21   22 2
    42   21   23 1
    43   24   41 1
@<TRIPOS>MOLECULE
CHEMBL350272
   38    40     0     0     0
SMALL
USER_CHARGES

@<TRIPOS>ATOM
      1 C1         -0.0168    1.3902    0.0097 C.ar      1 <0>        -0.0993
      2 C2          1.1406    2.1064    0.0025 C.ar      1 <0>        -0.0875
      3 C3          2.3742    1.4346   -0.0128 C.ar      1 <0>        -0.0431
      4 C4          2.3943    0.0173   -0.0206 C.ar      1 <0>        -0.0206
      5 C5          1.1797   -0.6889   -0.0132 C.ar      1 <0>        -0.0918
      6 C6          0.0021   -0.0041    0.0020 C.ar      1 <0>        -0.0216
      7 Cl1        -1.4967   -0.8800    0.0116 Cl        1 <0>        -0.0577
      8 C7          3.6286   -0.6545   -0.0350 C.ar      1 <0>        -0.0456
      9 C8          4.7866    0.0626   -0.0413 C.ar      1 <0>        -0.0237
     10 C9          4.7675    1.4570   -0.0337 C.ar      1 <0>        -0.0920
     11 C10         3.5902    2.1416   -0.0202 C.ar      1 <0>        -0.0145
     12 Cl2         3.5904    3.8776   -0.0114 Cl        1 <0>        -0.0439
     13 Cl3         6.3090   -0.7716   -0.0585 Cl        1 <0>        -0.0474
     14 C11         3.6707   -2.1609   -0.0429 C.3       1 <0>        -0.0925
     15 C12         3.6721   -2.6635   -1.4880 C.3       1 <0>        -0.1093
     16 C13         3.7149   -4.1929   -1.4960 C.3       1 <0>         0.1108
     17 C14         3.8371   -4.6932   -2.9378 C.3       1 <0>        -0.1537
     18 C15         3.8379   -6.2252   -2.9452 C.3       1 <0>         0.1043
     19 H1          3.9119   -6.5853   -3.9714 H         1 <0>         0.0803
     20 C16         2.5301   -6.7250   -2.3183 C.3       1 <0>        -0.2050
     21 C17         2.3572   -6.0469   -0.9768 C.2       1 <0>         0.4968
     22 O1          2.0892   -6.6863    0.0128 O.2       1 <0>        -0.4513
     23 O2          2.5106   -4.7079   -0.9174 O.3       1 <0>        -0.3689
     24 O3          4.9496   -6.7070   -2.1875 O.3       1 <0>        -0.5636
     25 H2         -0.9637    1.9094    0.0261 H         1 <0>         0.1413
     26 H3          1.1107    3.1860    0.0082 H         1 <0>         0.1449
     27 H4          1.1797   -1.7689   -0.0194 H         1 <0>         0.1507
     28 H5          5.6999    2.0020   -0.0390 H         1 <0>         0.1485
     29 H6          4.5751   -2.5017    0.4612 H         1 <0>         0.0898
     30 H7          2.7959   -2.5516    0.4768 H         1 <0>         0.0927
     31 H8          2.7678   -2.3227   -1.9921 H         1 <0>         0.0814
     32 H9          4.5470   -2.2728   -2.0077 H         1 <0>         0.0925
     33 H10         4.5724   -4.5360   -0.9172 H         1 <0>         0.0889
     34 H11         2.9932   -4.3271   -3.5226 H         1 <0>         0.0970
     35 H12         4.7673   -4.3269   -3.3723 H         1 <0>         0.0993
     36 H13         1.6917   -6.4735   -2.9679 H         1 <0>         0.1188
     37 H14         2.5779   -7.8052   -2.1806 H         1 <0>         0.1081
     38 H15         5.0117   -7.6713   -2.1501 H         1 <0>         0.3868
@<TRIPOS>BOND
     1    1    6 ar
     2    1    2 ar
     3    1   25 1
     4    2    3 ar
     5    2   26 1
     6    3   11 ar
     7    3    4 ar
     8    4    5 ar
     9    4    8 ar
    10    5    6 ar
    11    5   27 1
    12    6    7 1
    13    8    9 ar
    14    8   14 1
    15    9   10 ar
    16    9   13 1
    17   10   11 ar
    18   10   28 1
    19   11   12 1
    20   14   15 1
    21   14   29 1
    22   14   30 1
    23   15   16 1
    24   15   31 1
    25   15   32 1
    26   16   23 1
    27   16   17 1
    28   16   33 1
    29   17   18 1
    30   17   34 1
    31   17   35 1
    32   18   19 1
    33   18   20 1
    34   18   24 1
    35   20   21 1
    36   20   36 1
    37   20   37 1
    38   21   22 2
    39   21   23 1
    40   24   38 1
@<TRIPOS>MOLECULE
CHEMBL350272__1
   38    40     0     0     0
SMALL
USER_CHARGES

@<TRIPOS>ATOM
      1 C1         -0.0168    1.3902    0.0097 C.ar      1 <0>        -0.1012
      2 C2          1.1406    2.1064    0.0025 C.ar      1 <0>        -0.0846
      3 C3          2.3742    1.4346   -0.0128 C.ar      1 <0>        -0.0438
      4 C4          2.3943    0.0173   -0.0206 C.ar      1 <0>        -0.0199
      5 C5          1.1797   -0.6889   -0.0132 C.ar      1 <0>        -0.0952
      6 C6          0.0021   -0.0041    0.0020 C.ar      1 <0>        -0.0200
      7 Cl1        -1.4967   -0.8800    0.0116 Cl        1 <0>        -0.0582
      8 C7          3.6286   -0.6545   -0.0350 C.ar      1 <0>        -0.0489
      9 C8          4.7866    0.0626   -0.0413 C.ar      1 <0>        -0.0212
     10 C9          4.7675    1.4570   -0.0337 C.ar      1 <0>        -0.0921
     11 C10         3.5902    2.1416   -0.0202 C.ar      1 <0>        -0.0141
     12 Cl2         3.5904    3.8776   -0.0114 Cl        1 <0>        -0.0432
     13 Cl3         6.3090   -0.7716   -0.0585 Cl        1 <0>        -0.0417
     14 C11         3.6707   -2.1609   -0.0429 C.3       1 <0>        -0.0929
     15 C12         3.6721   -2.6635   -1.4880 C.3       1 <0>        -0.1088
     16 C13         3.7149   -4.1929   -1.4960 C.3       1 <0>         0.1104
     17 C14         3.5956   -4.7000   -2.9357 C.3       1 <0>        -0.1560
     18 C15         3.6804   -6.2296   -2.9439 C.3       1 <0>         0.1092
     19 H1          2.8660   -6.6437   -2.3494 H         1 <0>         0.0679
     20 C16         5.0250   -6.6550   -2.3403 C.3       1 <0>        -0.2051
     21 C17         5.1832   -5.9677   -1.0016 C.2       1 <0>         0.4921
     22 O1          5.5036   -6.5907   -0.0172 O.2       1 <0>        -0.4469
     23 O2          4.9562   -4.6393   -0.9389 O.3       1 <0>        -0.3628
     24 O3          3.5834   -6.7073   -4.2872 O.3       1 <0>        -0.5553
     25 H2         -0.9637    1.9094    0.0261 H         1 <0>         0.1416
     26 H3          1.1107    3.1860    0.0082 H         1 <0>         0.1452
     27 H4          1.1797   -1.7689   -0.0194 H         1 <0>         0.1467
     28 H5          5.6999    2.0020   -0.0390 H         1 <0>         0.1488
     29 H6          4.5751   -2.5017    0.4612 H         1 <0>         0.0992
     30 H7          2.7959   -2.5516    0.4768 H         1 <0>         0.0846
     31 H8          2.7678   -2.3227   -1.9921 H         1 <0>         0.0931
     32 H9          4.5470   -2.2728   -2.0077 H         1 <0>         0.0863
     33 H10         2.8882   -4.5832   -0.9024 H         1 <0>         0.0827
     34 H11         2.6389   -4.3866   -3.3535 H         1 <0>         0.0998
     35 H12         4.4072   -4.2875   -3.5350 H         1 <0>         0.0927
     36 H13         5.0402   -7.7362   -2.2023 H         1 <0>         0.1075
     37 H14         5.8365   -6.3574   -3.0043 H         1 <0>         0.1181
     38 H15         3.6300   -7.6699   -4.3667 H         1 <0>         0.3860
@<TRIPOS>BOND
     1    1    6 ar
     2    1    2 ar
     3    1   25 1
     4    2    3 ar
     5    2   26 1
     6    3   11 ar
     7    3    4 ar
     8    4    5 ar
     9    4    8 ar
    10    5    6 ar
    11    5   27 1
    12    6    7 1
    13    8    9 ar
    14    8   14 1
    15    9   10 ar
    16    9   13 1
    17   10   11 ar
    18   10   28 1
    19   11   12 1
    20   14   15 1
    21   14   29 1
    22   14   30 1
    23   15   16 1
    24   15   31 1
    25   15   32 1
    26   16   23 1
    27   16   17 1
    28   16   33 1
    29   17   18 1
    30   17   34 1
    31   17   35 1
    32   18   19 1
    33   18   20 1
    34   18   24 1
    35   20   21 1
    36   20   36 1
    37   20   37 1
    38   21   22 2
    39   21   23 1
    40   24   38 1
@<TRIPOS>MOLECULE
CHEMBL60053
   32    32     0     0     0
SMALL
USER_CHARGES

@<TRIPOS>ATOM
      1 C1         -0.0167    1.3781    0.0096 C.ar      1 <0>        -0.1285
      2 C2          1.1709    2.0855    0.0021 C.ar      1 <0>        -0.1190
      3 C3          2.3773    1.4107   -0.0130 C.ar      1 <0>        -0.1179
      4 C4          2.3960    0.0285   -0.0201 C.ar      1 <0>        -0.0773
      5 C5          1.2084   -0.6789   -0.0117 C.ar      1 <0>        -0.1179
      6 C6          0.0021   -0.0041    0.0020 C.ar      1 <0>        -0.1189
      7 C7          3.7112   -0.7071   -0.0376 C.3       1 <0>        -0.0751
      8 C8          4.1714   -0.9633    1.3989 C.3       1 <0>        -0.1640
      9 C9          5.4865   -1.6989    1.3815 C.2       1 <0>         0.3495
     10 O1          6.0025   -1.9885    0.3287 O.2       1 <0>        -0.4291
     11 C10         6.1577   -2.0733    2.6777 C.3       1 <0>        -0.2087
     12 C11         7.4675   -2.8062    2.3808 C.3       1 <0>         0.1406
     13 H1          7.2675   -3.6594    1.7326 H         1 <0>         0.0994
     14 C12         8.0867   -3.2954    3.6915 C.3       1 <0>        -0.2188
     15 C13         9.3106   -4.1218    3.3913 C.2       1 <0>         0.4903
     16 O2          9.6557   -4.3027    2.2360 O.co2     1 <0>        -0.6794
     17 O3          9.9558   -4.6095    4.3037 O.co2     1 <0>        -0.7123
     18 O4          8.3747   -1.9151    1.7288 O.3       1 <0>        -0.5321
     19 H2         -0.9591    1.9053    0.0259 H         1 <0>         0.1190
     20 H3          1.1563    3.1654    0.0076 H         1 <0>         0.1204
     21 H4          3.3051    1.9634   -0.0196 H         1 <0>         0.1219
     22 H5          1.2231   -1.7588   -0.0176 H         1 <0>         0.1220
     23 H6         -0.9258   -0.5567    0.0082 H         1 <0>         0.1204
     24 H7          3.5884   -1.6586   -0.5549 H         1 <0>         0.0787
     25 H8          4.4573   -0.1052   -0.5563 H         1 <0>         0.0791
     26 H9          4.2941   -0.0118    1.9163 H         1 <0>         0.0948
     27 H10         3.4252   -1.5652    1.9176 H         1 <0>         0.0952
     28 H11         6.3684   -1.1709    3.2517 H         1 <0>         0.0937
     29 H12         5.4995   -2.7243    3.2530 H         1 <0>         0.1000
     30 H13         8.3683   -2.4379    4.3027 H         1 <0>         0.0589
     31 H14         7.3610   -3.9038    4.2314 H         1 <0>         0.0639
     32 H15         8.5981   -1.1311    2.2490 H         1 <0>         0.3511
@<TRIPOS>BOND
     1    1    6 ar
     2    1    2 ar
     3    1   19 1
     4    2    3 ar
     5    2   20 1
     6    3    4 ar
     7    3   21 1
     8    4    5 ar
     9    4    7 1
    10    5    6 ar
    11    5   22 1
    12    6   23 1
    13    7    8 1
    14    7   24 1
    15    7   25 1
    16    8    9 1
    17    8   26 1
    18    8   27 1
    19    9   10 2
    20    9   11 1
    21   11   12 1
    22   11   28 1
    23   11   29 1
    24   12   13 1
    25   12   14 1
    26   12   18 1
    27   14   15 1
    28   14   30 1
    29   14   31 1
    30   15   16 2
    31   15   17 1
    32   18   32 1
@<TRIPOS>MOLECULE
CHEMBL306113
   74    76     0     0     0
SMALL
USER_CHARGES

@<TRIPOS>ATOM
      1 C1          1.7167    1.2540    0.3942 C.3       1 <0>        -0.1559
      2 C2          1.5469   -0.2602    0.2548 C.3       1 <0>        -0.1056
      3 C3          1.7723   -0.6666   -1.2030 C.3       1 <0>        -0.0514
      4 C4          0.7525    0.0451   -2.0943 C.3       1 <0>        -0.1526
      5 C5          3.1871   -0.2705   -1.6299 C.3       1 <0>        -0.1442
      6 C6          1.6051   -2.1580   -1.3402 C.2       1 <0>         0.4651
      7 O1          1.2646   -2.8180   -0.3872 O.2       1 <0>        -0.5038
      8 O2          1.8344   -2.7531   -2.5213 O.3       1 <0>        -0.3268
      9 C7          1.7833   -4.1809   -2.5491 C.3       1 <0>         0.0881
     10 H1          1.8335   -4.5682   -1.5314 H         1 <0>         0.0928
     11 C8          0.4766   -4.6355   -3.2079 C.3       1 <0>        -0.1248
     12 C9          0.4033   -4.1140   -4.6430 C.3       1 <0>        -0.0549
     13 H2         -0.5199   -4.4609   -5.1070 H         1 <0>         0.0734
     14 C10         1.6014   -4.6258   -5.4499 C.3       1 <0>        -0.0997
     15 C11         2.8860   -4.1453   -4.7800 C.3       1 <0>        -0.0519
     16 H3          2.8644   -3.0573   -4.7176 H         1 <0>         0.0905
     17 C12         2.9594   -4.7196   -3.3604 C.3       1 <0>        -0.0769
     18 H4          2.9011   -5.8071   -3.4061 H         1 <0>         0.0906
     19 C13         4.2952   -4.3084   -2.7399 C.3       1 <0>        -0.0738
     20 H5          4.4264   -3.2301   -2.8304 H         1 <0>         0.0763
     21 C14         5.4146   -5.0307   -3.4955 C.3       1 <0>        -0.0539
     22 H6          6.3726   -4.5834   -3.2305 H         1 <0>         0.0765
     23 C15         5.2138   -4.9239   -4.9777 C.2       1 <0>        -0.1508
     24 C16         4.1041   -4.5612   -5.5433 C.2       1 <0>        -0.1457
     25 C17         5.4208   -6.5073   -3.0948 C.3       1 <0>        -0.1501
     26 C18         4.3244   -4.7101   -1.2638 C.3       1 <0>        -0.1268
     27 C19         5.6090   -4.1866   -0.6182 C.3       1 <0>        -0.1132
     28 C20         5.6382   -4.5883    0.8578 C.3       1 <0>         0.1097
     29 H7          4.7308   -4.2365    1.3487 H         1 <0>         0.0843
     30 C21         6.8608   -3.9619    1.5339 C.3       1 <0>        -0.1533
     31 C22         6.9096   -4.3998    3.0012 C.3       1 <0>         0.1040
     32 H8          7.7860   -3.9661    3.4827 H         1 <0>         0.0792
     33 C23         6.9959   -5.9303    3.0594 C.3       1 <0>        -0.2047
     34 C24         5.8806   -6.5013    2.2113 C.2       1 <0>         0.4956
     35 O3          5.1565   -7.3689    2.6389 O.2       1 <0>        -0.4529
     36 O4          5.7171   -6.0141    0.9638 O.3       1 <0>        -0.3665
     37 O5          5.7274   -3.9587    3.6720 O.3       1 <0>        -0.5627
     38 C25         0.4202   -2.6071   -4.6288 C.2       1 <0>        -0.1440
     39 C26        -0.6367   -1.9366   -5.0151 C.2       1 <0>        -0.1758
     40 C27        -0.5752   -0.4354   -5.1328 C.3       1 <0>        -0.1326
     41 H9          2.7246    1.5361    0.0900 H         1 <0>         0.0597
     42 H10         0.9902    1.7610   -0.2408 H         1 <0>         0.0598
     43 H11         1.5561    1.5435    1.4327 H         1 <0>         0.0593
     44 H12         2.2734   -0.7672    0.8898 H         1 <0>         0.0699
     45 H13         0.5390   -0.5423    0.5590 H         1 <0>         0.0710
     46 H14         0.8362    1.1227   -1.9533 H         1 <0>         0.0758
     47 H15         0.9479   -0.2009   -3.1380 H         1 <0>         0.0763
     48 H16        -0.2530   -0.2793   -1.8266 H         1 <0>         0.0609
     49 H17         3.9136   -0.7776   -0.9949 H         1 <0>         0.0596
     50 H18         3.3476   -0.5601   -2.6684 H         1 <0>         0.0691
     51 H19         3.3080    0.8082   -1.5306 H         1 <0>         0.0747
     52 H20         0.4360   -5.7247   -3.2165 H         1 <0>         0.0801
     53 H21        -0.3687   -4.2485   -2.6390 H         1 <0>         0.0680
     54 H22         1.5872   -5.7155   -5.4737 H         1 <0>         0.0651
     55 H23         1.5511   -4.2353   -6.4663 H         1 <0>         0.0677
     56 H24         6.0462   -5.1798   -5.6164 H         1 <0>         0.1009
     57 H25         4.0663   -4.5459   -6.6225 H         1 <0>         0.1029
     58 H26         4.4602   -6.9563   -3.3472 H         1 <0>         0.0552
     59 H27         6.2161   -7.0258   -3.6302 H         1 <0>         0.0528
     60 H28         5.5904   -6.5917   -2.0214 H         1 <0>         0.0689
     61 H29         3.4611   -4.2826   -0.7538 H         1 <0>         0.0646
     62 H30         4.2934   -5.7966   -1.1823 H         1 <0>         0.0814
     63 H31         6.4723   -4.6140   -1.1283 H         1 <0>         0.0794
     64 H32         5.6400   -3.1001   -0.6998 H         1 <0>         0.0835
     65 H33         7.7666   -4.2923    1.0254 H         1 <0>         0.0955
     66 H34         6.7891   -2.8756    1.4807 H         1 <0>         0.0969
     67 H35         7.9592   -6.2591    2.6696 H         1 <0>         0.1180
     68 H36         6.8823   -6.2657    4.0903 H         1 <0>         0.1074
     69 H37         5.6918   -4.2022    4.6071 H         1 <0>         0.3861
     70 H38         1.3037   -2.0801   -4.3001 H         1 <0>         0.1289
     71 H39        -1.5522   -2.4595   -5.2494 H         1 <0>         0.1005
     72 H40        -0.3995   -0.0008   -4.1488 H         1 <0>         0.0699
     73 H41         0.2374   -0.1565   -5.8035 H         1 <0>         0.0622
     74 H42        -1.5191   -0.0632   -5.5311 H         1 <0>         0.0571
@<TRIPOS>BOND
     1    1    2 1
     2    1   41 1
     3    1   42 1
     4    1   43 1
     5    2    3 1
     6    2   44 1
     7    2   45 1
     8    3    4 1
     9    3    5 1
    10    3    6 1
    11    4   46 1
    12    4   47 1
    13    4   48 1
    14    5   49 1
    15    5   50 1
    16    5   51 1
    17    6    7 2
    18    6    8 1
    19    8    9 1
    20    9   10 1
    21    9   17 1
    22    9   11 1
    23   11   12 1
    24   11   52 1
    25   11   53 1
    26   12   13 1
    27   12   14 1
    28   12   38 1
    29   14   15 1
    30   14   54 1
    31   14   55 1
    32   15   16 1
    33   15   24 1
    34   15   17 1
    35   17   18 1
    36   17   19 1
    37   19   20 1
    38   19   21 1
    39   19   26 1
    40   21   22 1
    41   21   23 1
    42   21   25 1
    43   23   24 2
    44   23   56 1
    45   24   57 1
    46   25   58 1
    47   25   59 1
    48   25   60 1
    49   26   27 1
    50   26   61 1
    51   26   62 1
    52   27   28 1
    53   27   63 1
    54   27   64 1
    55   28   29 1
    56   28   36 1
    57   28   30 1
    58   30   31 1
    59   30   65 1
    60   30   66 1
    61   31   32 1
    62   31   33 1
    63   31   37 1
    64   33   34 1
    65   33   67 1
    66   33   68 1
    67   34   35 2
    68   34   36 1
    69   37   69 1
    70   38   39 2
    71   38   70 1
    72   39   40 1
    73   39   71 1
    74   40   72 1
    75   40   73 1
    76   40   74 1
@<TRIPOS>MOLECULE
CHEMBL83483
   73    75     0     0     0
SMALL
USER_CHARGES

@<TRIPOS>ATOM
      1 C1         -0.0187    1.5258    0.0104 C.3       1 <0>        -0.1557
      2 C2          0.0021   -0.0041    0.0020 C.3       1 <0>        -0.1028
      3 C3         -1.4333   -0.5336    0.0129 C.3       1 <0>        -0.0562
      4 C4         -2.1494   -0.0402    1.2717 C.3       1 <0>        -0.1427
      5 C5         -2.1733   -0.0268   -1.2266 C.3       1 <0>        -0.1320
      6 C6         -1.4129   -2.0405    0.0046 C.2       1 <0>         0.4706
      7 O1         -0.3584   -2.6303   -0.0086 O.2       1 <0>        -0.5072
      8 O2         -2.5661   -2.7274    0.0119 O.3       1 <0>        -0.3326
      9 C7         -2.4720   -4.1525    0.0034 C.3       1 <0>         0.0928
     10 H1         -1.5681   -4.4555   -0.5189 H         1 <0>         0.0945
     11 C8         -2.3758   -4.6177    1.4679 C.3       1 <0>        -0.1680
     12 C9         -2.2656   -6.1380    1.5444 C.3       1 <0>         0.1302
     13 O3         -3.2226   -6.7856    0.7262 O.3       1 <0>        -0.3698
     14 C10        -3.4916   -6.3290   -0.5820 C.3       1 <0>         0.1123
     15 H2         -4.4242   -6.7971   -0.9387 H         1 <0>         0.1059
     16 C11        -3.7038   -4.8062   -0.6060 C.3       1 <0>        -0.0996
     17 C12        -4.0653   -4.3719   -2.0082 C.3       1 <0>        -0.0669
     18 H3         -5.0518   -4.8466   -2.2396 H         1 <0>         0.0654
     19 C13        -3.1089   -4.8416   -3.0906 C.3       1 <0>        -0.0855
     20 H4         -3.6106   -4.6822   -4.0680 H         1 <0>         0.0693
     21 C14        -2.8084   -6.3316   -2.9794 C.3       1 <0>        -0.1118
     22 C15        -2.3758   -6.6949   -1.5585 C.3       1 <0>        -0.1545
     23 C16        -1.8234   -4.0212   -3.1096 C.3       1 <0>        -0.1553
     24 C17        -4.2973   -2.8666   -2.1198 C.3       1 <0>        -0.1166
     25 C18        -4.7776   -2.5279   -3.5324 C.3       1 <0>        -0.1194
     26 C19        -5.0101   -1.0198   -3.6442 C.3       1 <0>         0.1106
     27 C20        -5.6038   -0.6946   -5.0174 C.3       1 <0>        -0.1537
     28 C21        -5.7966    0.8202   -5.1414 C.3       1 <0>         0.1044
     29 H5         -6.2074    1.0569   -6.1229 H         1 <0>         0.0775
     30 C22        -4.4360    1.5087   -4.9741 C.3       1 <0>        -0.2067
     31 C23        -3.8010    1.0015   -3.6978 C.2       1 <0>         0.4951
     32 O4         -3.3404    1.7682   -2.8855 O.2       1 <0>        -0.4474
     33 O5         -3.7635   -0.3315   -3.4931 O.3       1 <0>        -0.3615
     34 O6         -6.6933    1.2734   -4.1252 O.3       1 <0>        -0.5631
     35 C24        -2.5384   -6.5527    3.0074 C.3       1 <0>        -0.1427
     36 C25        -0.8429   -6.5825    1.2005 C.3       1 <0>        -0.1765
     37 H6          1.0039    1.9031    0.0027 H         1 <0>         0.0572
     38 H7         -0.5459    1.8868   -0.8726 H         1 <0>         0.0633
     39 H8         -0.5289    1.8773    0.9072 H         1 <0>         0.0587
     40 H9          0.5123   -0.3556   -0.8948 H         1 <0>         0.0685
     41 H10         0.5293   -0.3651    0.8851 H         1 <0>         0.0673
     42 H11        -2.1642    1.0497    1.2777 H         1 <0>         0.0755
     43 H12        -3.1720   -0.4175    1.2794 H         1 <0>         0.0674
     44 H13        -1.6223   -0.4013    2.1547 H         1 <0>         0.0568
     45 H14        -1.6631   -0.3783   -2.1234 H         1 <0>         0.0540
     46 H15        -3.1959   -0.4041   -1.2189 H         1 <0>         0.0692
     47 H16        -2.1881    1.0631   -1.2207 H         1 <0>         0.0858
     48 H17        -1.4962   -4.1620    1.9255 H         1 <0>         0.0782
     49 H18        -3.2685   -4.2871    2.0017 H         1 <0>         0.0796
     50 H19        -4.5631   -4.5916    0.0554 H         1 <0>         0.0840
     51 H20        -3.7026   -6.9045   -3.2387 H         1 <0>         0.0642
     52 H21        -2.0097   -6.5966   -3.6766 H         1 <0>         0.0671
     53 H22        -1.4628   -6.1573   -1.3158 H         1 <0>         0.0692
     54 H23        -2.1858   -7.7694   -1.5059 H         1 <0>         0.0723
     55 H24        -1.3202   -4.1119   -2.1470 H         1 <0>         0.0544
     56 H25        -1.1682   -4.3907   -3.8984 H         1 <0>         0.0530
     57 H26        -2.0632   -2.9745   -3.2971 H         1 <0>         0.0621
     58 H27        -5.0529   -2.5608   -1.3961 H         1 <0>         0.0644
     59 H28        -3.3653   -2.3393   -1.9167 H         1 <0>         0.0887
     60 H29        -4.0221   -2.8337   -4.2561 H         1 <0>         0.0796
     61 H30        -5.7097   -3.0553   -3.7355 H         1 <0>         0.0843
     62 H31        -5.6999   -0.6991   -2.8636 H         1 <0>         0.0849
     63 H32        -4.9258   -1.0400   -5.7979 H         1 <0>         0.0945
     64 H33        -6.5669   -1.1937   -5.1247 H         1 <0>         0.0965
     65 H34        -3.7961    1.2690   -5.8233 H         1 <0>         0.1162
     66 H35        -4.5755    2.5879   -4.9115 H         1 <0>         0.1064
     67 H36        -6.8610    2.2256   -4.1448 H         1 <0>         0.3859
     68 H37        -3.5383   -6.2291    3.2964 H         1 <0>         0.0622
     69 H38        -2.4672   -7.6366    3.0971 H         1 <0>         0.0660
     70 H39        -1.8021   -6.0849    3.6610 H         1 <0>         0.0694
     71 H40        -0.1424   -6.1380    1.9076 H         1 <0>         0.0666
     72 H41        -0.7776   -7.6690    1.2588 H         1 <0>         0.0664
     73 H42        -0.5948   -6.2573    0.1902 H         1 <0>         0.0598
@<TRIPOS>BOND
     1    1    2 1
     2    1   37 1
     3    1   38 1
     4    1   39 1
     5    2    3 1
     6    2   40 1
     7    2   41 1
     8    3    4 1
     9    3    5 1
    10    3    6 1
    11    4   42 1
    12    4   43 1
    13    4   44 1
    14    5   45 1
    15    5   46 1
    16    5   47 1
    17    6    7 2
    18    6    8 1
    19    8    9 1
    20    9   10 1
    21    9   16 1
    22    9   11 1
    23   11   12 1
    24   11   48 1
    25   11   49 1
    26   12   13 1
    27   12   35 1
    28   12   36 1
    29   13   14 1
    30   14   15 1
    31   14   22 1
    32   14   16 1
    33   16   17 1
    34   16   50 1
    35   17   18 1
    36   17   19 1
    37   17   24 1
    38   19   20 1
    39   19   21 1
    40   19   23 1
    41   21   22 1
    42   21   51 1
    43   21   52 1
    44   22   53 1
    45   22   54 1
    46   23   55 1
    47   23   56 1
    48   23   57 1
    49   24   25 1
    50   24   58 1
    51   24   59 1
    52   25   26 1
    53   25   60 1
    54   25   61 1
    55   26   33 1
    56   26   27 1
    57   26   62 1
    58   27   28 1
    59   27   63 1
    60   27   64 1
    61   28   29 1
    62   28   30 1
    63   28   34 1
    64   30   31 1
    65   30   65 1
    66   30   66 1
    67   31   32 2
    68   31   33 1
    69   34   67 1
    70   35   68 1
    71   35   69 1
    72   35   70 1
    73   36   71 1
    74   36   72 1
    75   36   73 1
@<TRIPOS>MOLECULE
CHEMBL83483__1
   73    75     0     0     0
SMALL
USER_CHARGES

@<TRIPOS>ATOM
      1 C1         -0.0187    1.5258    0.0104 C.3       1 <0>        -0.1564
      2 C2          0.0021   -0.0041    0.0020 C.3       1 <0>        -0.1051
      3 C3         -1.4333   -0.5336    0.0129 C.3       1 <0>        -0.0508
      4 C4         -2.1494   -0.0402    1.2717 C.3       1 <0>        -0.1459
      5 C5         -2.1733   -0.0268   -1.2266 C.3       1 <0>        -0.1506
      6 C6         -1.4129   -2.0405    0.0046 C.2       1 <0>         0.4678
      7 O1         -0.3584   -2.6303   -0.0086 O.2       1 <0>        -0.5031
      8 O2         -2.5661   -2.7274    0.0119 O.3       1 <0>        -0.3320
      9 C7         -2.4720   -4.1525    0.0034 C.3       1 <0>         0.0933
     10 H1         -1.5681   -4.4555   -0.5189 H         1 <0>         0.0951
     11 C8         -2.3758   -4.6177    1.4679 C.3       1 <0>        -0.1682
     12 C9         -2.2656   -6.1380    1.5444 C.3       1 <0>         0.1302
     13 O3         -3.2226   -6.7856    0.7262 O.3       1 <0>        -0.3693
     14 C10        -3.4916   -6.3290   -0.5820 C.3       1 <0>         0.1121
     15 H2         -4.4242   -6.7971   -0.9387 H         1 <0>         0.1067
     16 C11        -3.7038   -4.8062   -0.6060 C.3       1 <0>        -0.1001
     17 C12        -4.0653   -4.3719   -2.0082 C.3       1 <0>        -0.0678
     18 H3         -5.0518   -4.8466   -2.2396 H         1 <0>         0.0684
     19 C13        -3.1089   -4.8416   -3.0906 C.3       1 <0>        -0.0877
     20 H4         -3.6106   -4.6822   -4.0680 H         1 <0>         0.0706
     21 C14        -2.8084   -6.3316   -2.9794 C.3       1 <0>        -0.1117
     22 C15        -2.3758   -6.6949   -1.5585 C.3       1 <0>        -0.1545
     23 C16        -1.8234   -4.0212   -3.1096 C.3       1 <0>        -0.1546
     24 C17        -4.2973   -2.8666   -2.1198 C.3       1 <0>        -0.1145
     25 C18        -4.7776   -2.5279   -3.5324 C.3       1 <0>        -0.1179
     26 C19        -5.0101   -1.0198   -3.6442 C.3       1 <0>         0.1094
     27 C20        -5.3747   -0.6645   -5.0881 C.3       1 <0>        -0.1564
     28 C21        -5.6472    0.8398   -5.1875 C.3       1 <0>         0.1090
     29 H5         -4.7538    1.3927   -4.8971 H         1 <0>         0.0667
     30 C22        -6.8025    1.1980   -4.2440 C.3       1 <0>        -0.2056
     31 C23        -6.4815    0.6496   -2.8709 C.2       1 <0>         0.4911
     32 O4         -6.5791    1.3432   -1.8863 O.2       1 <0>        -0.4473
     33 O5         -6.0833   -0.6360   -2.7774 O.3       1 <0>        -0.3616
     34 O6         -6.0016    1.1744   -6.5308 O.3       1 <0>        -0.5556
     35 C24        -2.5384   -6.5527    3.0074 C.3       1 <0>        -0.1431
     36 C25        -0.8429   -6.5825    1.2005 C.3       1 <0>        -0.1764
     37 H6          1.0039    1.9031    0.0027 H         1 <0>         0.0602
     38 H7         -0.5459    1.8868   -0.8726 H         1 <0>         0.0593
     39 H8         -0.5289    1.8773    0.9072 H         1 <0>         0.0607
     40 H9          0.5123   -0.3556   -0.8948 H         1 <0>         0.0708
     41 H10         0.5293   -0.3651    0.8851 H         1 <0>         0.0712
     42 H11        -2.1642    1.0497    1.2777 H         1 <0>         0.0764
     43 H12        -3.1720   -0.4175    1.2794 H         1 <0>         0.0710
     44 H13        -1.6223   -0.4013    2.1547 H         1 <0>         0.0602
     45 H14        -1.6631   -0.3783   -2.1234 H         1 <0>         0.0598
     46 H15        -3.1959   -0.4041   -1.2189 H         1 <0>         0.0727
     47 H16        -2.1881    1.0631   -1.2207 H         1 <0>         0.0763
     48 H17        -1.4962   -4.1620    1.9255 H         1 <0>         0.0783
     49 H18        -3.2685   -4.2871    2.0017 H         1 <0>         0.0805
     50 H19        -4.5631   -4.5916    0.0554 H         1 <0>         0.0856
     51 H20        -3.7026   -6.9045   -3.2387 H         1 <0>         0.0653
     52 H21        -2.0097   -6.5966   -3.6766 H         1 <0>         0.0677
     53 H22        -1.4628   -6.1573   -1.3158 H         1 <0>         0.0690
     54 H23        -2.1858   -7.7694   -1.5059 H         1 <0>         0.0729
     55 H24        -1.3202   -4.1119   -2.1470 H         1 <0>         0.0558
     56 H25        -1.1682   -4.3907   -3.8984 H         1 <0>         0.0557
     57 H26        -2.0632   -2.9745   -3.2971 H         1 <0>         0.0559
     58 H27        -5.0529   -2.5608   -1.3961 H         1 <0>         0.0753
     59 H28        -3.3653   -2.3393   -1.9167 H         1 <0>         0.0764
     60 H29        -4.0221   -2.8337   -4.2561 H         1 <0>         0.0906
     61 H30        -5.7097   -3.0553   -3.7355 H         1 <0>         0.0792
     62 H31        -4.1024   -0.4894   -3.3564 H         1 <0>         0.0783
     63 H32        -4.5480   -0.9287   -5.7475 H         1 <0>         0.0979
     64 H33        -6.2671   -1.2161   -5.3841 H         1 <0>         0.0915
     65 H34        -6.9111    2.2813   -4.1909 H         1 <0>         0.1069
     66 H35        -7.7276    0.7529   -4.6104 H         1 <0>         0.1175
     67 H36        -6.1880    2.1135   -6.6661 H         1 <0>         0.3855
     68 H37        -3.5383   -6.2291    3.2964 H         1 <0>         0.0625
     69 H38        -2.4672   -7.6366    3.0971 H         1 <0>         0.0663
     70 H39        -1.8021   -6.0849    3.6610 H         1 <0>         0.0694
     71 H40        -0.1424   -6.1380    1.9076 H         1 <0>         0.0666
     72 H41        -0.7776   -7.6690    1.2588 H         1 <0>         0.0668
     73 H42        -0.5948   -6.2573    0.1902 H         1 <0>         0.0596
@<TRIPOS>BOND
     1    1    2 1
     2    1   37 1
     3    1   38 1
     4    1   39 1
     5    2    3 1
     6    2   40 1
     7    2   41 1
     8    3    4 1
     9    3    5 1
    10    3    6 1
    11    4   42 1
    12    4   43 1
    13    4   44 1
    14    5   45 1
    15    5   46 1
    16    5   47 1
    17    6    7 2
    18    6    8 1
    19    8    9 1
    20    9   10 1
    21    9   16 1
    22    9   11 1
    23   11   12 1
    24   11   48 1
    25   11   49 1
    26   12   13 1
    27   12   35 1
    28   12   36 1
    29   13   14 1
    30   14   15 1
    31   14   22 1
    32   14   16 1
    33   16   17 1
    34   16   50 1
    35   17   18 1
    36   17   19 1
    37   17   24 1
    38   19   20 1
    39   19   21 1
    40   19   23 1
    41   21   22 1
    42   21   51 1
    43   21   52 1
    44   22   53 1
    45   22   54 1
    46   23   55 1
    47   23   56 1
    48   23   57 1
    49   24   25 1
    50   24   58 1
    51   24   59 1
    52   25   26 1
    53   25   60 1
    54   25   61 1
    55   26   33 1
    56   26   27 1
    57   26   62 1
    58   27   28 1
    59   27   63 1
    60   27   64 1
    61   28   29 1
    62   28   30 1
    63   28   34 1
    64   30   31 1
    65   30   65 1
    66   30   66 1
    67   31   32 2
    68   31   33 1
    69   34   67 1
    70   35   68 1
    71   35   69 1
    72   35   70 1
    73   36   71 1
    74   36   72 1
    75   36   73 1
@<TRIPOS>MOLECULE
CHEMBL83483__2
   73    75     0     0     0
SMALL
USER_CHARGES

@<TRIPOS>ATOM
      1 C1          0.4367    1.5167    1.1083 C.3       1 <0>        -0.1559
      2 C2          0.4458   -0.0128    1.0689 C.3       1 <0>        -0.1058
      3 C3         -0.9543   -0.5224    0.7214 C.3       1 <0>        -0.0521
      4 C4         -1.9485   -0.0455    1.7821 C.3       1 <0>        -0.1481
      5 C5         -1.3695    0.0206   -0.6474 C.3       1 <0>        -0.1441
      6 C6         -0.9454   -2.0289    0.6826 C.2       1 <0>         0.4653
      7 O1          0.0761   -2.6330    0.9096 O.2       1 <0>        -0.5025
      8 O2         -2.0722   -2.6996    0.3958 O.3       1 <0>        -0.3317
      9 C7         -1.9909   -4.1261    0.3764 C.3       1 <0>         0.0879
     10 H1         -0.9874   -4.4307    0.0792 H         1 <0>         0.0906
     11 C8         -2.3025   -4.6772    1.7720 C.3       1 <0>        -0.1609
     12 C9         -3.7411   -4.3157    2.1493 C.3       1 <0>         0.1184
     13 O3         -4.6395   -4.8315    1.1639 O.3       1 <0>        -0.3679
     14 C10        -4.4223   -4.3082   -0.1467 C.3       1 <0>         0.0967
     15 H2         -4.5188   -3.2227   -0.1243 H         1 <0>         0.0693
     16 C11        -3.0120   -4.6845   -0.6180 C.3       1 <0>        -0.1055
     17 C12        -2.7639   -4.0933   -2.0062 C.3       1 <0>        -0.0717
     18 H3         -2.8643   -3.0088   -1.9632 H         1 <0>         0.0785
     19 C13        -3.7902   -4.6630   -2.9886 C.3       1 <0>        -0.0870
     20 H4         -3.6173   -4.2417   -3.9789 H         1 <0>         0.0753
     21 C14        -5.2022   -4.3046   -2.5222 C.3       1 <0>        -0.1112
     22 C15        -5.4475   -4.8899   -1.1207 C.3       1 <0>        -0.1136
     23 C16        -3.6459   -6.1849   -3.0503 C.3       1 <0>        -0.1575
     24 C17        -1.3527   -4.4575   -2.4719 C.3       1 <0>        -0.1222
     25 C18        -1.0600   -3.7633   -3.8035 C.3       1 <0>        -0.1133
     26 C19         0.3512   -4.1276   -4.2692 C.3       1 <0>         0.1095
     27 C20         0.6898   -3.3407   -5.5381 C.3       1 <0>        -0.1532
     28 C21         2.0869   -3.7386   -6.0247 C.3       1 <0>         0.1039
     29 H5          2.3264   -3.1897   -6.9354 H         1 <0>         0.0795
     30 C22         2.1010   -5.2450   -6.3139 C.3       1 <0>        -0.2047
     31 C23         1.5688   -5.9674   -5.0955 C.2       1 <0>         0.4955
     32 O4          2.1607   -6.9091   -4.6235 O.2       1 <0>        -0.4529
     33 O5          0.4143   -5.5300   -4.5516 O.3       1 <0>        -0.3665
     34 O6          3.0505   -3.4336   -5.0145 O.3       1 <0>        -0.5634
     35 C24        -4.0779   -4.9222    3.5130 C.3       1 <0>        -0.1394
     36 C25        -3.8821   -2.7939    2.2204 C.3       1 <0>        -0.1832
     37 H6          1.4342    1.8797    1.3559 H         1 <0>         0.0598
     38 H7          0.1409    1.9035    0.1331 H         1 <0>         0.0600
     39 H8         -0.2715    1.8564    1.8640 H         1 <0>         0.0600
     40 H9          1.1541   -0.3526    0.3132 H         1 <0>         0.0710
     41 H10         0.7416   -0.3996    2.0441 H         1 <0>         0.0704
     42 H11        -1.9550    1.0442    1.8102 H         1 <0>         0.0761
     43 H12        -2.9460   -0.4085    1.5346 H         1 <0>         0.0714
     44 H13        -1.6527   -0.4323    2.7573 H         1 <0>         0.0601
     45 H14        -0.6613   -0.3192   -1.4031 H         1 <0>         0.0603
     46 H15        -2.3670   -0.3424   -0.8950 H         1 <0>         0.0689
     47 H16        -1.3760    1.1102   -0.6194 H         1 <0>         0.0758
     48 H17        -2.1886   -5.7612    1.7689 H         1 <0>         0.0868
     49 H18        -1.6156   -4.2408    2.4971 H         1 <0>         0.0777
     50 H19        -2.9211   -5.7698   -0.6618 H         1 <0>         0.0991
     51 H20        -5.3082   -3.2203   -2.4866 H         1 <0>         0.0639
     52 H21        -5.9305   -4.7171   -3.2203 H         1 <0>         0.0695
     53 H22        -5.3421   -5.9743   -1.1554 H         1 <0>         0.0734
     54 H23        -6.4529   -4.6320   -0.7879 H         1 <0>         0.0701
     55 H24        -3.8175   -6.6066   -2.0599 H         1 <0>         0.0596
     56 H25        -4.3765   -6.5911   -3.7497 H         1 <0>         0.0538
     57 H26        -2.6408   -6.4413   -3.3851 H         1 <0>         0.0617
     58 H27        -0.6284   -4.1318   -1.7254 H         1 <0>         0.0609
     59 H28        -1.2803   -5.5374   -2.6015 H         1 <0>         0.0788
     60 H29        -1.7844   -4.0890   -4.5500 H         1 <0>         0.0806
     61 H30        -1.1324   -2.6835   -3.6739 H         1 <0>         0.0844
     62 H31         1.0678   -3.8815   -3.4856 H         1 <0>         0.0833
     63 H32        -0.0432   -3.5666   -6.3126 H         1 <0>         0.0959
     64 H33         0.6711   -2.2729   -5.3197 H         1 <0>         0.0971
     65 H34         1.4673   -5.4599   -7.1744 H         1 <0>         0.1183
     66 H35         3.1211   -5.5705   -6.5177 H         1 <0>         0.1075
     67 H36         3.9590   -3.6602   -5.2563 H         1 <0>         0.3864
     68 H37        -3.3947   -4.5274    4.2650 H         1 <0>         0.0689
     69 H38        -5.1023   -4.6650    3.7821 H         1 <0>         0.0653
     70 H39        -3.9765   -6.0064    3.4635 H         1 <0>         0.0629
     71 H40        -3.7990   -2.3740    1.2180 H         1 <0>         0.0869
     72 H41        -4.8543   -2.5383    2.6419 H         1 <0>         0.0579
     73 H42        -3.0934   -2.3850    2.8521 H         1 <0>         0.0588
@<TRIPOS>BOND
     1    1    2 1
     2    1   37 1
     3    1   38 1
     4    1   39 1
     5    2    3 1
     6    2   40 1
     7    2   41 1
     8    3    4 1
     9    3    5 1
    10    3    6 1
    11    4   42 1
    12    4   43 1
    13    4   44 1
    14    5   45 1
    15    5   46 1
    16    5   47 1
    17    6    7 2
    18    6    8 1
    19    8    9 1
    20    9   10 1
    21    9   16 1
    22    9   11 1
    23   11   12 1
    24   11   48 1
    25   11   49 1
    26   12   13 1
    27   12   35 1
    28   12   36 1
    29   13   14 1
    30   14   15 1
    31   14   22 1
    32   14   16 1
    33   16   17 1
    34   16   50 1
    35   17   18 1
    36   17   19 1
    37   17   24 1
    38   19   20 1
    39   19   21 1
    40   19   23 1
    41   21   22 1
    42   21   51 1
    43   21   52 1
    44   22   53 1
    45   22   54 1
    46   23   55 1
    47   23   56 1
    48   23   57 1
    49   24   25 1
    50   24   58 1
    51   24   59 1
    52   25   26 1
    53   25   60 1
    54   25   61 1
    55   26   33 1
    56   26   27 1
    57   26   62 1
    58   27   28 1
    59   27   63 1
    60   27   64 1
    61   28   29 1
    62   28   30 1
    63   28   34 1
    64   30   31 1
    65   30   65 1
    66   30   66 1
    67   31   32 2
    68   31   33 1
    69   34   67 1
    70   35   68 1
    71   35   69 1
    72   35   70 1
    73   36   71 1
    74   36   72 1
    75   36   73 1
@<TRIPOS>MOLECULE
CHEMBL83483__3
   73    75     0     0     0
SMALL
USER_CHARGES

@<TRIPOS>ATOM
      1 C1          0.4367    1.5167    1.1083 C.3       1 <0>        -0.1556
      2 C2          0.4458   -0.0128    1.0689 C.3       1 <0>        -0.1059
      3 C3         -0.9543   -0.5224    0.7214 C.3       1 <0>        -0.0513
      4 C4         -1.9485   -0.0455    1.7821 C.3       1 <0>        -0.1477
      5 C5         -1.3695    0.0206   -0.6474 C.3       1 <0>        -0.1436
      6 C6         -0.9454   -2.0289    0.6826 C.2       1 <0>         0.4653
      7 O1          0.0761   -2.6330    0.9096 O.2       1 <0>        -0.4988
      8 O2         -2.0722   -2.6996    0.3958 O.3       1 <0>        -0.3326
      9 C7         -1.9909   -4.1261    0.3764 C.3       1 <0>         0.0878
     10 H1         -0.9874   -4.4307    0.0792 H         1 <0>         0.0913
     11 C8         -2.3025   -4.6772    1.7720 C.3       1 <0>        -0.1608
     12 C9         -3.7411   -4.3157    2.1493 C.3       1 <0>         0.1186
     13 O3         -4.6395   -4.8315    1.1639 O.3       1 <0>        -0.3681
     14 C10        -4.4223   -4.3082   -0.1467 C.3       1 <0>         0.0963
     15 H2         -4.5188   -3.2227   -0.1243 H         1 <0>         0.0696
     16 C11        -3.0120   -4.6845   -0.6180 C.3       1 <0>        -0.1049
     17 C12        -2.7639   -4.0933   -2.0062 C.3       1 <0>        -0.0723
     18 H3         -2.8643   -3.0088   -1.9632 H         1 <0>         0.0802
     19 C13        -3.7902   -4.6630   -2.9886 C.3       1 <0>        -0.0886
     20 H4         -3.6173   -4.2417   -3.9789 H         1 <0>         0.0757
     21 C14        -5.2022   -4.3046   -2.5222 C.3       1 <0>        -0.1113
     22 C15        -5.4475   -4.8899   -1.1207 C.3       1 <0>        -0.1134
     23 C16        -3.6459   -6.1849   -3.0503 C.3       1 <0>        -0.1567
     24 C17        -1.3527   -4.4575   -2.4719 C.3       1 <0>        -0.1231
     25 C18        -1.0600   -3.7633   -3.8035 C.3       1 <0>        -0.1115
     26 C19         0.3512   -4.1276   -4.2692 C.3       1 <0>         0.1081
     27 C20         0.6013   -3.5315   -5.6570 C.3       1 <0>        -0.1549
     28 C21         2.0292   -3.8630   -6.1023 C.3       1 <0>         0.1088
     29 H5          2.1553   -4.9447   -6.1488 H         1 <0>         0.0670
     30 C22         3.0151   -3.2741   -5.0853 C.3       1 <0>        -0.2045
     31 C23         2.6043   -3.7349   -3.7039 C.2       1 <0>         0.4905
     32 O4          3.4119   -4.2117   -2.9421 O.2       1 <0>        -0.4465
     33 O5          1.3104   -3.5979   -3.3473 O.3       1 <0>        -0.3629
     34 O6          2.2722   -3.2968   -7.3916 O.3       1 <0>        -0.5556
     35 C24        -4.0779   -4.9222    3.5130 C.3       1 <0>        -0.1393
     36 C25        -3.8821   -2.7939    2.2204 C.3       1 <0>        -0.1833
     37 H6          1.4342    1.8797    1.3559 H         1 <0>         0.0595
     38 H7          0.1409    1.9035    0.1331 H         1 <0>         0.0598
     39 H8         -0.2715    1.8564    1.8640 H         1 <0>         0.0598
     40 H9          1.1541   -0.3526    0.3132 H         1 <0>         0.0710
     41 H10         0.7416   -0.3996    2.0441 H         1 <0>         0.0702
     42 H11        -1.9550    1.0442    1.8102 H         1 <0>         0.0758
     43 H12        -2.9460   -0.4085    1.5346 H         1 <0>         0.0711
     44 H13        -1.6527   -0.4323    2.7573 H         1 <0>         0.0599
     45 H14        -0.6613   -0.3192   -1.4031 H         1 <0>         0.0609
     46 H15        -2.3670   -0.3424   -0.8950 H         1 <0>         0.0682
     47 H16        -1.3760    1.1102   -0.6194 H         1 <0>         0.0751
     48 H17        -2.1886   -5.7612    1.7689 H         1 <0>         0.0861
     49 H18        -1.6156   -4.2408    2.4971 H         1 <0>         0.0778
     50 H19        -2.9211   -5.7698   -0.6618 H         1 <0>         0.0981
     51 H20        -5.3082   -3.2203   -2.4866 H         1 <0>         0.0646
     52 H21        -5.9305   -4.7171   -3.2203 H         1 <0>         0.0699
     53 H22        -5.3421   -5.9743   -1.1554 H         1 <0>         0.0730
     54 H23        -6.4529   -4.6320   -0.7879 H         1 <0>         0.0704
     55 H24        -3.8175   -6.6066   -2.0599 H         1 <0>         0.0611
     56 H25        -4.3765   -6.5911   -3.7497 H         1 <0>         0.0552
     57 H26        -2.6408   -6.4413   -3.3851 H         1 <0>         0.0571
     58 H27        -0.6284   -4.1318   -1.7254 H         1 <0>         0.0718
     59 H28        -1.2803   -5.5374   -2.6015 H         1 <0>         0.0696
     60 H29        -1.7844   -4.0890   -4.5500 H         1 <0>         0.0916
     61 H30        -1.1324   -2.6835   -3.6739 H         1 <0>         0.0781
     62 H31         0.4507   -5.2120   -4.3149 H         1 <0>         0.0786
     63 H32        -0.1088   -3.9544   -6.3678 H         1 <0>         0.0985
     64 H33         0.4750   -2.4496   -5.6163 H         1 <0>         0.0909
     65 H34         4.0233   -3.6253   -5.3051 H         1 <0>         0.1070
     66 H35         2.9861   -2.1855   -5.1333 H         1 <0>         0.1173
     67 H36         3.1596   -3.4683   -7.7356 H         1 <0>         0.3856
     68 H37        -3.3947   -4.5274    4.2650 H         1 <0>         0.0690
     69 H38        -5.1023   -4.6650    3.7821 H         1 <0>         0.0652
     70 H39        -3.9765   -6.0064    3.4635 H         1 <0>         0.0627
     71 H40        -3.7990   -2.3740    1.2180 H         1 <0>         0.0871
     72 H41        -4.8543   -2.5383    2.6419 H         1 <0>         0.0577
     73 H42        -3.0934   -2.3850    2.8521 H         1 <0>         0.0590
@<TRIPOS>BOND
     1    1    2 1
     2    1   37 1
     3    1   38 1
     4    1   39 1
     5    2    3 1
     6    2   40 1
     7    2   41 1
     8    3    4 1
     9    3    5 1
    10    3    6 1
    11    4   42 1
    12    4   43 1
    13    4   44 1
    14    5   45 1
    15    5   46 1
    16    5   47 1
    17    6    7 2
    18    6    8 1
    19    8    9 1
    20    9   10 1
    21    9   16 1
    22    9   11 1
    23   11   12 1
    24   11   48 1
    25   11   49 1
    26   12   13 1
    27   12   35 1
    28   12   36 1
    29   13   14 1
    30   14   15 1
    31   14   22 1
    32   14   16 1
    33   16   17 1
    34   16   50 1
    35   17   18 1
    36   17   19 1
    37   17   24 1
    38   19   20 1
    39   19   21 1
    40   19   23 1
    41   21   22 1
    42   21   51 1
    43   21   52 1
    44   22   53 1
    45   22   54 1
    46   23   55 1
    47   23   56 1
    48   23   57 1
    49   24   25 1
    50   24   58 1
    51   24   59 1
    52   25   26 1
    53   25   60 1
    54   25   61 1
    55   26   33 1
    56   26   27 1
    57   26   62 1
    58   27   28 1
    59   27   63 1
    60   27   64 1
    61   28   29 1
    62   28   30 1
    63   28   34 1
    64   30   31 1
    65   30   65 1
    66   30   66 1
    67   31   32 2
    68   31   33 1
    69   34   67 1
    70   35   68 1
    71   35   69 1
    72   35   70 1
    73   36   71 1
    74   36   72 1
    75   36   73 1
@<TRIPOS>MOLECULE
CHEMBL331453
   75    79     0     0     0
SMALL
USER_CHARGES

@<TRIPOS>ATOM
      1 C1          0.6683    0.5921    0.3322 C.3       1 <0>        -0.1508
      2 C2          0.2121   -0.8422    0.0574 C.3       1 <0>        -0.0385
      3 C3          0.7185   -1.7607    1.1713 C.3       1 <0>        -0.1461
      4 C4         -1.2934   -0.8905    0.0121 C.2       1 <0>         0.1058
      5 C5         -2.1363   -0.5349    1.0418 C.2       1 <0>        -0.1876
      6 C6         -3.5056   -0.7449    0.5426 C.2       1 <0>        -0.0603
      7 C7         -3.3684   -1.2109   -0.7502 C.2       1 <0>         0.0653
      8 N1         -2.0315   -1.2827   -1.0435 N.pl3     1 <0>        -0.4183
      9 C8         -1.4817   -1.7284   -2.3262 C.3       1 <0>         0.0955
     10 C9         -1.1336   -3.2160   -2.2426 C.3       1 <0>        -0.1356
     11 C10        -0.6705   -3.7093   -3.6148 C.3       1 <0>         0.1132
     12 H1         -1.4337   -3.4830   -4.3595 H         1 <0>         0.0910
     13 C11        -0.4396   -5.2219   -3.5630 C.3       1 <0>        -0.1523
     14 C12         0.0636   -5.7057   -4.9268 C.3       1 <0>         0.1046
     15 H2          0.2415   -6.7805   -4.8901 H         1 <0>         0.0821
     16 C13         1.3733   -4.9792   -5.2585 C.3       1 <0>        -0.2046
     17 C14         1.1439   -3.4918   -5.1017 C.2       1 <0>         0.4970
     18 O1          1.4802   -2.7167   -5.9654 O.2       1 <0>        -0.4483
     19 O2          0.5528   -3.0554   -3.9701 O.3       1 <0>        -0.3705
     20 O3         -0.9141   -5.4163   -5.9280 O.3       1 <0>        -0.5638
     21 C15        -4.4738   -1.5653   -1.6631 C.ar      1 <0>        -0.0317
     22 C16        -4.5239   -2.8346   -2.2434 C.ar      1 <0>        -0.0813
     23 C17        -5.5588   -3.1602   -3.0947 C.ar      1 <0>        -0.1506
     24 C18        -6.5478   -2.2306   -3.3747 C.ar      1 <0>         0.1075
     25 C19        -6.5032   -0.9694   -2.8018 C.ar      1 <0>        -0.1485
     26 C20        -5.4760   -0.6345   -1.9448 C.ar      1 <0>        -0.0579
     27 F1         -7.5591   -2.5549   -4.2098 F         1 <0>        -0.1365
     28 C21        -4.7692   -0.5058    1.2757 C.ar      1 <0>        -0.0176
     29 C22        -5.6007   -1.5763    1.6060 C.ar      1 <0>        -0.0968
     30 C23        -6.7772   -1.3469    2.2893 C.ar      1 <0>        -0.1198
     31 C24        -7.1332   -0.0585    2.6464 C.ar      1 <0>        -0.1174
     32 C25        -6.3132    1.0073    2.3213 C.ar      1 <0>        -0.1192
     33 C26        -5.1309    0.7903    1.6441 C.ar      1 <0>        -0.1034
     34 C27        -1.7472   -0.0447    2.3719 C.2       1 <0>         0.5544
     35 O4         -1.6069    1.1475    2.5632 O.2       1 <0>        -0.4955
     36 O5         -1.5458   -0.9173    3.3795 O.3       1 <0>        -0.3375
     37 C28        -1.1695   -0.3712    4.6452 C.3       1 <0>         0.1055
     38 C29        -0.9897   -1.4881    5.6408 C.ar      1 <0>        -0.0957
     39 C30        -2.0627   -1.9174    6.3992 C.ar      1 <0>        -0.0938
     40 C31        -1.8978   -2.9420    7.3124 C.ar      1 <0>        -0.1222
     41 C32        -0.6599   -3.5375    7.4670 C.ar      1 <0>        -0.1093
     42 C33         0.4130   -3.1087    6.7080 C.ar      1 <0>        -0.1230
     43 C34         0.2470   -2.0871    5.7917 C.ar      1 <0>        -0.0953
     44 H3          1.7572    0.6271    0.3650 H         1 <0>         0.0658
     45 H4          0.3075    1.2465   -0.4614 H         1 <0>         0.0598
     46 H5          0.2651    0.9247    1.2887 H         1 <0>         0.0662
     47 H6          0.6153   -1.1747   -0.8991 H         1 <0>         0.0866
     48 H7          0.3153   -1.4281    2.1279 H         1 <0>         0.0638
     49 H8          0.3935   -2.7825    0.9756 H         1 <0>         0.0597
     50 H9          1.8075   -1.7257    1.2041 H         1 <0>         0.0659
     51 H10        -2.2204   -1.5718   -3.1122 H         1 <0>         0.0993
     52 H11        -0.5819   -1.1570   -2.5541 H         1 <0>         0.1050
     53 H12        -0.3348   -3.3619   -1.5155 H         1 <0>         0.0905
     54 H13        -2.0144   -3.7783   -1.9325 H         1 <0>         0.0973
     55 H14         0.3037   -5.4503   -2.7992 H         1 <0>         0.0984
     56 H15        -1.3760   -5.7247   -3.3216 H         1 <0>         0.1001
     57 H16         2.1572   -5.3042   -4.5746 H         1 <0>         0.1197
     58 H17         1.6659   -5.1996   -6.2851 H         1 <0>         0.1096
     59 H18        -0.6604   -5.6963   -6.8181 H         1 <0>         0.3882
     60 H19        -3.7536   -3.5597   -2.0261 H         1 <0>         0.1315
     61 H20        -5.5985   -4.1414   -3.5443 H         1 <0>         0.1394
     62 H21        -7.2766   -0.2490   -3.0236 H         1 <0>         0.1401
     63 H22        -5.4445    0.3471   -1.4956 H         1 <0>         0.1362
     64 H23        -5.3242   -2.5824    1.3272 H         1 <0>         0.1201
     65 H24        -7.4217   -2.1747    2.5456 H         1 <0>         0.1222
     66 H25        -8.0553    0.1159    3.1809 H         1 <0>         0.1211
     67 H26        -6.5970    2.0108    2.6022 H         1 <0>         0.1227
     68 H27        -4.4892    1.6226    1.3951 H         1 <0>         0.1230
     69 H28        -0.2329    0.1766    4.5406 H         1 <0>         0.0768
     70 H29        -1.9490    0.3055    4.9952 H         1 <0>         0.0769
     71 H30        -3.0299   -1.4522    6.2784 H         1 <0>         0.1238
     72 H31        -2.7360   -3.2769    7.9054 H         1 <0>         0.1254
     73 H32        -0.5309   -4.3374    8.1810 H         1 <0>         0.1242
     74 H33         1.3802   -3.5737    6.8290 H         1 <0>         0.1252
     75 H34         1.0843   -1.7546    5.1960 H         1 <0>         0.1235
@<TRIPOS>BOND
     1    1    2 1
     2    1   44 1
     3    1   45 1
     4    1   46 1
     5    2    3 1
     6    2    4 1
     7    2   47 1
     8    3   48 1
     9    3   49 1
    10    3   50 1
    11    4    8 1
    12    4    5 2
    13    5    6 1
    14    5   34 1
    15    6    7 2
    16    6   28 1
    17    7    8 1
    18    7   21 1
    19    8    9 1
    20    9   10 1
    21    9   51 1
    22    9   52 1
    23   10   11 1
    24   10   53 1
    25   10   54 1
    26   11   12 1
    27   11   19 1
    28   11   13 1
    29   13   14 1
    30   13   55 1
    31   13   56 1
    32   14   15 1
    33   14   16 1
    34   14   20 1
    35   16   17 1
    36   16   57 1
    37   16   58 1
    38   17   18 2
    39   17   19 1
    40   20   59 1
    41   21   26 ar
    42   21   22 ar
    43   22   23 ar
    44   22   60 1
    45   23   24 ar
    46   23   61 1
    47   24   25 ar
    48   24   27 1
    49   25   26 ar
    50   25   62 1
    51   26   63 1
    52   28   33 ar
    53   28   29 ar
    54   29   30 ar
    55   29   64 1
    56   30   31 ar
    57   30   65 1
    58   31   32 ar
    59   31   66 1
    60   32   33 ar
    61   32   67 1
    62   33   68 1
    63   34   35 2
    64   34   36 1
    65   36   37 1
    66   37   38 1
    67   37   69 1
    68   37   70 1
    69   38   43 ar
    70   38   39 ar
    71   39   40 ar
    72   39   71 1
    73   40   41 ar
    74   40   72 1
    75   41   42 ar
    76   41   73 1
    77   42   43 ar
    78   42   74 1
    79   43   75 1
@<TRIPOS>MOLECULE
CHEMBL488821
   73    76     0     0     0
SMALL
USER_CHARGES

@<TRIPOS>ATOM
      1 C1          1.3587   -3.8703    6.5676 C.3       1 <0>        -0.1049
      2 C2          1.0842   -4.2200    5.1276 C.ar      1 <0>         0.0881
      3 C3          0.4738   -3.2977    4.2958 C.ar      1 <0>         0.0529
      4 N1          0.2337   -3.6042    3.0332 N.ar      1 <0>        -0.4179
      5 C4          0.5763   -4.7914    2.5648 C.ar      1 <0>         0.0461
      6 C5          1.1865   -5.7134    3.3963 C.ar      1 <0>         0.0789
      7 N2          1.4313   -5.4051    4.6579 N.ar      1 <0>        -0.4379
      8 C6          0.3019   -5.1411    1.1248 C.3       1 <0>         0.1776
      9 N3         -1.0688   -5.6419    0.9966 N.am      1 <0>        -0.7155
     10 C7         -1.5387   -6.0184   -0.2092 C.2       1 <0>         0.6020
     11 O1         -0.8596   -5.8528   -1.2059 O.2       1 <0>        -0.5145
     12 C8         -2.8658   -6.6268   -0.3204 C.2       1 <0>        -0.0355
     13 C9         -3.1495   -7.9867   -0.2958 C.2       1 <0>        -0.0554
     14 C10        -4.5557   -8.1113   -0.4341 C.2       1 <0>        -0.1214
     15 C11        -5.0697   -6.8529   -0.5359 C.2       1 <0>         0.0734
     16 N4         -4.0586   -5.9546   -0.4622 N.pl3     1 <0>        -0.4109
     17 C12        -4.2102   -4.4989   -0.5269 C.3       1 <0>         0.0648
     18 C13        -6.5294   -6.5152   -0.6978 C.3       1 <0>        -0.0517
     19 C14        -6.8774   -6.4573   -2.1865 C.3       1 <0>        -0.1472
     20 C15        -8.3594   -6.1144   -2.3509 C.3       1 <0>         0.1139
     21 H1         -8.9621   -6.8296   -1.7912 H         1 <0>         0.0987
     22 C16        -8.7365   -6.1787   -3.8323 C.3       1 <0>        -0.1869
     23 C17       -10.2429   -5.9587   -3.9851 C.3       1 <0>         0.1376
     24 H2        -10.7797   -6.6794   -3.3683 H         1 <0>         0.0929
     25 C18       -10.6396   -6.1463   -5.4508 C.3       1 <0>        -0.2194
     26 C19       -12.1378   -6.0511   -5.5818 C.2       1 <0>         0.4904
     27 O2        -12.8247   -5.8518   -4.5944 O.co2     1 <0>        -0.6812
     28 O3        -12.6632   -6.1736   -6.6753 O.co2     1 <0>        -0.7133
     29 O4        -10.5754   -4.6331   -3.5675 O.3       1 <0>        -0.5282
     30 O5         -8.6012   -4.7963   -1.8546 O.3       1 <0>        -0.5420
     31 C20        -5.3258   -9.3789   -0.4626 C.ar      1 <0>        -0.0110
     32 C21        -6.0054   -9.7579   -1.6188 C.ar      1 <0>        -0.0792
     33 C22        -6.7201  -10.9380   -1.6410 C.ar      1 <0>        -0.1495
     34 C23        -6.7632  -11.7454   -0.5161 C.ar      1 <0>         0.0956
     35 C24        -6.0892  -11.3726    0.6354 C.ar      1 <0>        -0.1527
     36 C25        -5.3672  -10.1970    0.6648 C.ar      1 <0>        -0.0739
     37 F1         -7.4649  -12.8996   -0.5420 F         1 <0>        -0.1416
     38 C26        -2.1737   -9.0911   -0.1530 C.ar      1 <0>        -0.0105
     39 C27        -1.9769   -9.9915   -1.2002 C.ar      1 <0>        -0.0938
     40 C28        -1.0658  -11.0183   -1.0612 C.ar      1 <0>        -0.1175
     41 C29        -0.3482  -11.1559    0.1136 C.ar      1 <0>        -0.1205
     42 C30        -0.5392  -10.2664    1.1559 C.ar      1 <0>        -0.1206
     43 C31        -1.4432   -9.2321    1.0270 C.ar      1 <0>        -0.1083
     44 H3          2.3440   -3.4113    6.6486 H         1 <0>         0.0855
     45 H4          0.6017   -3.1708    6.9222 H         1 <0>         0.0827
     46 H5          1.3288   -4.7759    7.1734 H         1 <0>         0.0827
     47 H6          0.1935   -2.3276    4.6788 H         1 <0>         0.1729
     48 H7          1.4665   -6.6837    3.0134 H         1 <0>         0.1728
     49 H8          0.4235   -4.2524    0.5055 H         1 <0>         0.0923
     50 H9          1.0018   -5.9102    0.7980 H         1 <0>         0.0927
     51 H10        -1.6383   -5.7024    1.7795 H         1 <0>         0.4035
     52 H11        -4.2391   -4.1826   -1.5696 H         1 <0>         0.0824
     53 H12        -5.1373   -4.2078   -0.0331 H         1 <0>         0.0950
     54 H13        -3.3669   -4.0232   -0.0262 H         1 <0>         0.0833
     55 H14        -7.1353   -7.2803   -0.2125 H         1 <0>         0.0903
     56 H15        -6.7313   -5.5470   -0.2395 H         1 <0>         0.0810
     57 H16        -6.2714   -5.6922   -2.6718 H         1 <0>         0.0623
     58 H17        -6.6755   -7.4254   -2.6448 H         1 <0>         0.0760
     59 H18        -8.1989   -5.4033   -4.3781 H         1 <0>         0.0617
     60 H19        -8.4696   -7.1566   -4.2330 H         1 <0>         0.0741
     61 H20       -10.1719   -5.3697   -6.0561 H         1 <0>         0.0558
     62 H21       -10.3062   -7.1253   -5.7950 H         1 <0>         0.0610
     63 H22       -10.1328   -3.9385   -4.0741 H         1 <0>         0.3494
     64 H23        -8.0968   -4.1068   -2.3076 H         1 <0>         0.3633
     65 H24        -5.9729   -9.1287   -2.4960 H         1 <0>         0.1326
     66 H25        -7.2470  -11.2325   -2.5366 H         1 <0>         0.1368
     67 H26        -6.1258  -12.0049    1.5102 H         1 <0>         0.1329
     68 H27        -4.8385   -9.9094    1.5615 H         1 <0>         0.1285
     69 H28        -2.5368   -9.8853   -2.1176 H         1 <0>         0.1215
     70 H29        -0.9128  -11.7163   -1.8710 H         1 <0>         0.1218
     71 H30         0.3638  -11.9613    0.2176 H         1 <0>         0.1194
     72 H31         0.0235  -10.3795    2.0708 H         1 <0>         0.1203
     73 H32        -1.5882   -8.5356    1.8396 H         1 <0>         0.1157
@<TRIPOS>BOND
     1    1    2 1
     2    1   44 1
     3    1   45 1
     4    1   46 1
     5    2    7 ar
     6    2    3 ar
     7    3    4 ar
     8    3   47 1
     9    4    5 ar
    10    5    6 ar
    11    5    8 1
    12    6    7 ar
    13    6   48 1
    14    8    9 1
    15    8   49 1
    16    8   50 1
    17    9   10 am
    18    9   51 1
    19   10   11 2
    20   10   12 1
    21   12   16 1
    22   12   13 2
    23   13   14 1
    24   13   38 1
    25   14   15 2
    26   14   31 1
    27   15   16 1
    28   15   18 1
    29   16   17 1
    30   17   52 1
    31   17   53 1
    32   17   54 1
    33   18   19 1
    34   18   55 1
    35   18   56 1
    36   19   20 1
    37   19   57 1
    38   19   58 1
    39   20   21 1
    40   20   22 1
    41   20   30 1
    42   22   23 1
    43   22   59 1
    44   22   60 1
    45   23   24 1
    46   23   25 1
    47   23   29 1
    48   25   26 1
    49   25   61 1
    50   25   62 1
    51   26   27 2
    52   26   28 1
    53   29   63 1
    54   30   64 1
    55   31   36 ar
    56   31   32 ar
    57   32   33 ar
    58   32   65 1
    59   33   34 ar
    60   33   66 1
    61   34   35 ar
    62   34   37 1
    63   35   36 ar
    64   35   67 1
    65   36   68 1
    66   38   43 ar
    67   38   39 ar
    68   39   40 ar
    69   39   69 1
    70   40   41 ar
    71   40   70 1
    72   41   42 ar
    73   41   71 1
    74   42   43 ar
    75   42   72 1
    76   43   73 1
@<TRIPOS>MOLECULE
CHEMBL421614
   58    61     0     0     0
SMALL
USER_CHARGES

@<TRIPOS>ATOM
      1 C1         -0.0187    1.5258    0.0104 C.3       1 <0>        -0.1448
      2 C2          0.0021   -0.0041    0.0020 C.3       1 <0>        -0.0161
      3 C3         -1.4333   -0.5336    0.0129 C.3       1 <0>        -0.1435
      4 C4          0.7074   -0.4901   -1.2379 C.2       1 <0>         0.0984
      5 C5          1.8540   -1.2845   -1.2632 C.2       1 <0>        -0.1974
      6 C6          2.1805   -1.5077   -2.5715 C.2       1 <0>         0.1281
      7 N1          1.2519   -0.8627   -3.3372 N.pl3     1 <0>        -0.3214
      8 N2          0.3430   -0.2418   -2.4709 N.2       1 <0>        -0.2701
      9 C7          1.2124   -0.8317   -4.7377 C.ar      1 <0>         0.1441
     10 C8          2.3944   -0.8155   -5.4663 C.ar      1 <0>        -0.0969
     11 C9          2.3533   -0.7850   -6.8464 C.ar      1 <0>        -0.1309
     12 C10         1.1345   -0.7700   -7.5036 C.ar      1 <0>         0.1003
     13 C11        -0.0454   -0.7857   -6.7787 C.ar      1 <0>        -0.1341
     14 C12        -0.0086   -0.8229   -5.3987 C.ar      1 <0>        -0.0816
     15 F1          1.0964   -0.7397   -8.8538 F         1 <0>        -0.1330
     16 C13         3.3273   -2.3004   -3.0661 C.ar      1 <0>        -0.0513
     17 C14         4.5884   -2.1413   -2.4906 C.ar      1 <0>        -0.0564
     18 C15         5.6544   -2.8832   -2.9552 C.ar      1 <0>        -0.1475
     19 C16         5.4746   -3.7849   -3.9920 C.ar      1 <0>         0.1138
     20 C17         4.2242   -3.9466   -4.5670 C.ar      1 <0>        -0.1511
     21 C18         3.1504   -3.2138   -4.1060 C.ar      1 <0>        -0.0686
     22 F2          6.5221   -4.5085   -4.4441 F         1 <0>        -0.1346
     23 C19         2.6004   -1.8037   -0.0614 C.3       1 <0>        -0.0482
     24 C20         2.0315   -3.1652    0.3432 C.3       1 <0>        -0.1082
     25 C21         2.7892   -3.6924    1.5633 C.3       1 <0>         0.1098
     26 H1          2.7530   -2.9517    2.3622 H         1 <0>         0.0872
     27 C22         2.1423   -4.9942    2.0435 C.3       1 <0>        -0.1536
     28 C23         2.9284   -5.5409    3.2395 C.3       1 <0>         0.1044
     29 H2          2.4783   -6.4747    3.5763 H         1 <0>         0.0792
     30 C24         4.3775   -5.7960    2.8057 C.3       1 <0>        -0.2055
     31 C25         4.9074   -4.5364    2.1561 C.2       1 <0>         0.4964
     32 O1          5.9758   -4.0731    2.4783 O.2       1 <0>        -0.4532
     33 O2          4.1530   -3.9447    1.2068 O.3       1 <0>        -0.3660
     34 O3          2.9056   -4.5874    4.3036 O.3       1 <0>        -0.5633
     35 H3          1.0039    1.9031    0.0027 H         1 <0>         0.0561
     36 H4         -0.5459    1.8868   -0.8726 H         1 <0>         0.0613
     37 H5         -0.5289    1.8773    0.9072 H         1 <0>         0.0637
     38 H6          0.5293   -0.3651    0.8851 H         1 <0>         0.0914
     39 H7         -1.9605   -0.1726   -0.8702 H         1 <0>         0.0612
     40 H8         -1.4185   -1.6235    0.0069 H         1 <0>         0.0553
     41 H9         -1.9435   -0.1821    0.9097 H         1 <0>         0.0637
     42 H10         3.3451   -0.8264   -4.9541 H         1 <0>         0.1406
     43 H11         3.2724   -0.7724   -7.4134 H         1 <0>         0.1465
     44 H12        -0.9950   -0.7733   -7.2931 H         1 <0>         0.1466
     45 H13        -0.9290   -0.8404   -4.8339 H         1 <0>         0.1443
     46 H14         4.7297   -1.4383   -1.6830 H         1 <0>         0.1420
     47 H15         6.6309   -2.7609   -2.5105 H         1 <0>         0.1431
     48 H16         4.0894   -4.6504   -5.3751 H         1 <0>         0.1408
     49 H17         2.1754   -3.3439   -4.5518 H         1 <0>         0.1308
     50 H18         3.6568   -1.9102   -0.3079 H         1 <0>         0.0827
     51 H19         2.4892   -1.1030    0.7661 H         1 <0>         0.0769
     52 H20         0.9750   -3.0588    0.5897 H         1 <0>         0.0880
     53 H21         2.1427   -3.8659   -0.4843 H         1 <0>         0.0759
     54 H22         1.1126   -4.7996    2.3435 H         1 <0>         0.0984
     55 H23         2.1540   -5.7258    1.2356 H         1 <0>         0.0951
     56 H24         4.9839   -6.0431    3.6771 H         1 <0>         0.1075
     57 H25         4.4078   -6.6186    2.0912 H         1 <0>         0.1177
     58 H26         3.3854   -4.8690    5.0945 H         1 <0>         0.3864
@<TRIPOS>BOND
     1    1    2 1
     2    1   35 1
     3    1   36 1
     4    1   37 1
     5    2    3 1
     6    2    4 1
     7    2   38 1
     8    3   39 1
     9    3   40 1
    10    3   41 1
    11    4    8 2
    12    4    5 1
    13    5    6 2
    14    5   23 1
    15    6    7 1
    16    6   16 1
    17    7    8 1
    18    7    9 1
    19    9   14 ar
    20    9   10 ar
    21   10   11 ar
    22   10   42 1
    23   11   12 ar
    24   11   43 1
    25   12   13 ar
    26   12   15 1
    27   13   14 ar
    28   13   44 1
    29   14   45 1
    30   16   21 ar
    31   16   17 ar
    32   17   18 ar
    33   17   46 1
    34   18   19 ar
    35   18   47 1
    36   19   20 ar
    37   19   22 1
    38   20   21 ar
    39   20   48 1
    40   21   49 1
    41   23   24 1
    42   23   50 1
    43   23   51 1
    44   24   25 1
    45   24   52 1
    46   24   53 1
    47   25   26 1
    48   25   33 1
    49   25   27 1
    50   27   28 1
    51   27   54 1
    52   27   55 1
    53   28   29 1
    54   28   30 1
    55   28   34 1
    56   30   31 1
    57   30   56 1
    58   30   57 1
    59   31   32 2
    60   31   33 1
    61   34   58 1
@<TRIPOS>MOLECULE
CHEMBL253153
   74    77     0     0     0
SMALL
USER_CHARGES

@<TRIPOS>ATOM
      1 C1         -0.4529    1.3824    0.0016 C.3       1 <0>        -0.1515
      2 C2         -0.2608   -0.0766    0.4203 C.3       1 <0>        -0.0121
      3 C3          0.4924   -0.1304    1.7510 C.3       1 <0>        -0.1510
      4 C4         -1.6069   -0.7354    0.5779 C.2       1 <0>        -0.1237
      5 C5         -2.0849   -1.7969   -0.1127 C.2       1 <0>         0.0272
      6 N1         -3.3343   -2.0500    0.3569 N.pl3     1 <0>        -0.2345
      7 N2         -3.6361   -1.2113    1.2822 N.2       1 <0>        -0.2565
      8 C6         -2.6342   -0.3779    1.4834 C.2       1 <0>        -0.0007
      9 C7         -2.5933    0.7237    2.4658 C.2       1 <0>         0.6179
     10 O1         -1.6403    1.4781    2.4940 O.2       1 <0>        -0.5021
     11 N3         -3.6125    0.8929    3.3313 N.am      1 <0>        -0.6034
     12 C8         -4.8206    0.0517    3.4111 C.3       1 <0>         0.1024
     13 C9         -5.3324    0.2295    4.8624 C.3       1 <0>        -0.1350
     14 C10        -5.0244    1.7282    5.1199 C.3       1 <0>        -0.1231
     15 C11        -3.7007    1.9430    4.3565 C.3       1 <0>         0.1799
     16 C12        -3.7045    3.3000    3.7011 C.ar      1 <0>        -0.0841
     17 C13        -4.4212    3.5032    2.5366 C.ar      1 <0>        -0.1014
     18 C14        -4.4247    4.7479    1.9354 C.ar      1 <0>        -0.1195
     19 C15        -3.7119    5.7897    2.4989 C.ar      1 <0>        -0.1199
     20 C16        -2.9959    5.5868    3.6639 C.ar      1 <0>        -0.1185
     21 C17        -2.9959    4.3431    4.2674 C.ar      1 <0>        -0.1039
     22 C18        -4.1719   -3.0760   -0.1015 C.ar      1 <0>         0.1192
     23 C19        -3.6578   -4.3468   -0.3220 C.ar      1 <0>        -0.0801
     24 C20        -4.4847   -5.3564   -0.7737 C.ar      1 <0>        -0.1305
     25 C21        -5.8260   -5.1020   -1.0066 C.ar      1 <0>         0.1116
     26 C22        -6.3406   -3.8350   -0.7877 C.ar      1 <0>        -0.1391
     27 C23        -5.5182   -2.8244   -0.3301 C.ar      1 <0>        -0.0718
     28 F1         -6.6334   -6.0910   -1.4485 F         1 <0>        -0.1311
     29 C24        -1.3665   -2.5549   -1.1991 C.3       1 <0>        -0.0565
     30 C25        -1.7788   -2.0022   -2.5649 C.3       1 <0>        -0.1448
     31 C26        -1.1437   -2.8482   -3.6703 C.3       1 <0>         0.1145
     32 H1         -0.0642   -2.8855   -3.5244 H         1 <0>         0.0998
     33 C27        -1.4531   -2.2234   -5.0322 C.3       1 <0>        -0.1867
     34 C28        -0.7158   -2.9966   -6.1274 C.3       1 <0>         0.1381
     35 H2          0.3488   -3.0287   -5.8956 H         1 <0>         0.0932
     36 C29        -0.9241   -2.2986   -7.4728 C.3       1 <0>        -0.2197
     37 C30        -0.0997   -2.9880   -8.5293 C.2       1 <0>         0.4907
     38 O2          0.5904   -3.9486   -8.2335 O.co2     1 <0>        -0.6812
     39 O3         -0.1229   -2.5852   -9.6798 O.co2     1 <0>        -0.7131
     40 O4         -1.2285   -4.3287   -6.1974 O.3       1 <0>        -0.5278
     41 O5         -1.6770   -4.1732   -3.6219 O.3       1 <0>        -0.5402
     42 H3          0.5104    1.8924    0.0091 H         1 <0>         0.0530
     43 H4         -0.8759    1.4197   -1.0023 H         1 <0>         0.0423
     44 H5         -1.1301    1.8746    0.6997 H         1 <0>         0.0843
     45 H6          0.3133   -0.6012   -0.3435 H         1 <0>         0.0730
     46 H7         -0.1319    0.2908    2.5390 H         1 <0>         0.0801
     47 H8          0.7315   -1.1662    1.9915 H         1 <0>         0.0423
     48 H9          1.4140    0.4460    1.6704 H         1 <0>         0.0540
     49 H10        -5.5706    0.3966    2.6994 H         1 <0>         0.0678
     50 H11        -4.5692   -0.9920    3.2227 H         1 <0>         0.0928
     51 H12        -6.4029    0.0341    4.9258 H         1 <0>         0.0857
     52 H13        -4.7791   -0.4073    5.5526 H         1 <0>         0.0770
     53 H14        -5.8148    2.3597    4.7140 H         1 <0>         0.0807
     54 H15        -4.8877    1.9164    6.1848 H         1 <0>         0.0850
     55 H16        -2.8576    1.8629    5.0427 H         1 <0>         0.0858
     56 H17        -4.9781    2.6893    2.0964 H         1 <0>         0.1144
     57 H18        -4.9840    4.9065    1.0253 H         1 <0>         0.1189
     58 H19        -3.7140    6.7620    2.0289 H         1 <0>         0.1196
     59 H20        -2.4387    6.4006    4.1040 H         1 <0>         0.1208
     60 H21        -2.4395    4.1856    5.1796 H         1 <0>         0.1199
     61 H22        -2.6118   -4.5455   -0.1408 H         1 <0>         0.1476
     62 H23        -4.0851   -6.3449   -0.9457 H         1 <0>         0.1513
     63 H24        -7.3866   -3.6384   -0.9706 H         1 <0>         0.1468
     64 H25        -5.9209   -1.8378   -0.1546 H         1 <0>         0.1422
     65 H26        -0.2901   -2.4408   -1.0709 H         1 <0>         0.0939
     66 H27        -1.6295   -3.6111   -1.1401 H         1 <0>         0.0898
     67 H28        -2.8642   -2.0376   -2.6585 H         1 <0>         0.0607
     68 H29        -1.4396   -0.9705   -2.6568 H         1 <0>         0.0756
     69 H30        -2.5265   -2.2668   -5.2165 H         1 <0>         0.0610
     70 H31        -1.1253   -1.1838   -5.0378 H         1 <0>         0.0741
     71 H32        -1.9781   -2.3448   -7.7469 H         1 <0>         0.0556
     72 H33        -0.6148   -1.2564   -7.3932 H         1 <0>         0.0609
     73 H34        -2.1727   -4.3766   -6.4006 H         1 <0>         0.3493
     74 H35        -2.6352   -4.2162   -3.7446 H         1 <0>         0.3628
@<TRIPOS>BOND
     1    1    2 1
     2    1   42 1
     3    1   43 1
     4    1   44 1
     5    2    3 1
     6    2    4 1
     7    2   45 1
     8    3   46 1
     9    3   47 1
    10    3   48 1
    11    4    8 1
    12    4    5 2
    13    5    6 1
    14    5   29 1
    15    6    7 1
    16    6   22 1
    17    7    8 2
    18    8    9 1
    19    9   10 2
    20    9   11 am
    21   11   15 1
    22   11   12 1
    23   12   13 1
    24   12   49 1
    25   12   50 1
    26   13   14 1
    27   13   51 1
    28   13   52 1
    29   14   15 1
    30   14   53 1
    31   14   54 1
    32   15   16 1
    33   15   55 1
    34   16   21 ar
    35   16   17 ar
    36   17   18 ar
    37   17   56 1
    38   18   19 ar
    39   18   57 1
    40   19   20 ar
    41   19   58 1
    42   20   21 ar
    43   20   59 1
    44   21   60 1
    45   22   27 ar
    46   22   23 ar
    47   23   24 ar
    48   23   61 1
    49   24   25 ar
    50   24   62 1
    51   25   26 ar
    52   25   28 1
    53   26   27 ar
    54   26   63 1
    55   27   64 1
    56   29   30 1
    57   29   65 1
    58   29   66 1
    59   30   31 1
    60   30   67 1
    61   30   68 1
    62   31   32 1
    63   31   33 1
    64   31   41 1
    65   33   34 1
    66   33   69 1
    67   33   70 1
    68   34   35 1
    69   34   36 1
    70   34   40 1
    71   36   37 1
    72   36   71 1
    73   36   72 1
    74   37   38 2
    75   37   39 1
    76   40   73 1
    77   41   74 1
@<TRIPOS>MOLECULE
CHEMBL253153__1
   74    77     0     0     0
SMALL
USER_CHARGES

@<TRIPOS>ATOM
      1 C1         -0.3149    1.4041   -0.1740 C.3       1 <0>        -0.1515
      2 C2         -0.1714   -0.0806    0.1665 C.3       1 <0>        -0.0120
      3 C3          0.6591   -0.2333    1.4423 C.3       1 <0>        -0.1515
      4 C4         -1.5369   -0.6809    0.3812 C.2       1 <0>        -0.1236
      5 C5         -2.1078   -1.6884   -0.3197 C.2       1 <0>         0.0275
      6 N1         -3.3378   -1.9017    0.2160 N.pl3     1 <0>        -0.2344
      7 N2         -3.5415   -1.0894    1.1904 N.2       1 <0>        -0.2572
      8 C6         -2.4890   -0.3137    1.3618 C.2       1 <0>        -0.0003
      9 C7         -2.3345    0.7422    2.3823 C.2       1 <0>         0.6179
     10 O1         -1.3354    1.4350    2.3938 O.2       1 <0>        -0.5020
     11 N3         -3.3009    0.9381    3.3010 N.am      1 <0>        -0.6033
     12 C8         -4.5549    0.1701    3.4060 C.3       1 <0>         0.0990
     13 C9         -5.5395    1.1165    4.1372 C.3       1 <0>        -0.1342
     14 C10        -4.5999    1.8202    5.1517 C.3       1 <0>        -0.1232
     15 C11        -3.2764    1.9489    4.3684 C.3       1 <0>         0.1794
     16 C12        -2.1079    1.6969    5.2861 C.ar      1 <0>        -0.0837
     17 C13        -1.7696    0.4028    5.6350 C.ar      1 <0>        -0.1014
     18 C14        -0.6978    0.1717    6.4768 C.ar      1 <0>        -0.1198
     19 C15         0.0360    1.2346    6.9694 C.ar      1 <0>        -0.1200
     20 C16        -0.3018    2.5287    6.6198 C.ar      1 <0>        -0.1187
     21 C17        -1.3710    2.7596    5.7745 C.ar      1 <0>        -0.1033
     22 C18        -4.2515   -2.8665   -0.2296 C.ar      1 <0>         0.1193
     23 C19        -3.8166   -4.1516   -0.5255 C.ar      1 <0>        -0.0798
     24 C20        -4.7183   -5.1008   -0.9644 C.ar      1 <0>        -0.1305
     25 C21        -6.0558   -4.7719   -1.1096 C.ar      1 <0>         0.1117
     26 C22        -6.4915   -3.4906   -0.8153 C.ar      1 <0>        -0.1389
     27 C23        -5.5938   -2.5403   -0.3703 C.ar      1 <0>        -0.0721
     28 F1         -6.9365   -5.7019   -1.5391 F         1 <0>        -0.1310
     29 C24        -1.4944   -2.4331   -1.4774 C.3       1 <0>        -0.0565
     30 C25        -1.9586   -1.8035   -2.7923 C.3       1 <0>        -0.1448
     31 C26        -1.4347   -2.6317   -3.9673 C.3       1 <0>         0.1144
     32 H1         -0.3517   -2.7276   -3.8899 H         1 <0>         0.0998
     33 C27        -1.7924   -1.9352   -5.2817 C.3       1 <0>        -0.1867
     34 C28        -1.1623   -2.6962   -6.4500 C.3       1 <0>         0.1380
     35 H2         -0.0888   -2.7898   -6.2858 H         1 <0>         0.0931
     36 C29        -1.4145   -1.9323   -7.7515 C.3       1 <0>        -0.2195
     37 C30        -0.6909   -2.6155   -8.8832 C.2       1 <0>         0.4905
     38 O2         -0.0343   -3.6202   -8.6687 O.co2     1 <0>        -0.6811
     39 O3         -0.7620   -2.1635  -10.0133 O.co2     1 <0>        -0.7131
     40 O4         -1.7456   -3.9975   -6.5408 O.3       1 <0>        -0.5278
     41 O5         -2.0311   -3.9300   -3.9384 O.3       1 <0>        -0.5402
     42 H3          0.6721    1.8651   -0.2125 H         1 <0>         0.0534
     43 H4         -0.8029    1.5092   -1.1430 H         1 <0>         0.0429
     44 H5         -0.9160    1.8959    0.5908 H         1 <0>         0.0830
     45 H6          0.3267   -0.5953   -0.6551 H         1 <0>         0.0730
     46 H7          0.1097    0.1849    2.2858 H         1 <0>         0.0823
     47 H8          0.8548   -1.2900    1.6242 H         1 <0>         0.0415
     48 H9          1.6046    0.2965    1.3260 H         1 <0>         0.0533
     49 H10        -4.9325   -0.0773    2.4139 H         1 <0>         0.0974
     50 H11        -4.3965   -0.7369    3.9896 H         1 <0>         0.0660
     51 H12        -5.9764    1.8363    3.4449 H         1 <0>         0.0774
     52 H13        -6.3162    0.5505    4.6515 H         1 <0>         0.0856
     53 H14        -4.9888    2.8023    5.4204 H         1 <0>         0.0854
     54 H15        -4.4599    1.2035    6.0395 H         1 <0>         0.0798
     55 H16        -3.2006    2.9455    3.9334 H         1 <0>         0.0857
     56 H17        -2.3429   -0.4276    5.2502 H         1 <0>         0.1142
     57 H18        -0.4339   -0.8393    6.7500 H         1 <0>         0.1186
     58 H19         0.8729    1.0541    7.6277 H         1 <0>         0.1194
     59 H20         0.2713    3.3591    7.0049 H         1 <0>         0.1209
     60 H21        -1.6325    3.7704    5.4984 H         1 <0>         0.1202
     61 H22        -2.7736   -4.4084   -0.4128 H         1 <0>         0.1473
     62 H23        -4.3803   -6.1003   -1.1950 H         1 <0>         0.1513
     63 H24        -7.5347   -3.2358   -0.9298 H         1 <0>         0.1470
     64 H25        -5.9349   -1.5426   -0.1360 H         1 <0>         0.1421
     65 H26        -0.4078   -2.3764   -1.4111 H         1 <0>         0.0939
     66 H27        -1.8064   -3.4770   -1.4442 H         1 <0>         0.0897
     67 H28        -3.0481   -1.7821   -2.8201 H         1 <0>         0.0608
     68 H29        -1.5732   -0.7865   -2.8642 H         1 <0>         0.0757
     69 H30        -2.8757   -1.9186   -5.4011 H         1 <0>         0.0611
     70 H31        -1.4128   -0.9136   -5.2666 H         1 <0>         0.0741
     71 H32        -2.4839   -1.9156   -7.9615 H         1 <0>         0.0556
     72 H33        -1.0481   -0.9108   -7.6501 H         1 <0>         0.0609
     73 H34        -2.7014   -3.9908   -6.6870 H         1 <0>         0.3493
     74 H35        -2.9959   -3.9211   -4.0033 H         1 <0>         0.3628
@<TRIPOS>BOND
     1    1    2 1
     2    1   42 1
     3    1   43 1
     4    1   44 1
     5    2    3 1
     6    2    4 1
     7    2   45 1
     8    3   46 1
     9    3   47 1
    10    3   48 1
    11    4    8 1
    12    4    5 2
    13    5    6 1
    14    5   29 1
    15    6    7 1
    16    6   22 1
    17    7    8 2
    18    8    9 1
    19    9   10 2
    20    9   11 am
    21   11   15 1
    22   11   12 1
    23   12   13 1
    24   12   49 1
    25   12   50 1
    26   13   14 1
    27   13   51 1
    28   13   52 1
    29   14   15 1
    30   14   53 1
    31   14   54 1
    32   15   16 1
    33   15   55 1
    34   16   21 ar
    35   16   17 ar
    36   17   18 ar
    37   17   56 1
    38   18   19 ar
    39   18   57 1
    40   19   20 ar
    41   19   58 1
    42   20   21 ar
    43   20   59 1
    44   21   60 1
    45   22   27 ar
    46   22   23 ar
    47   23   24 ar
    48   23   61 1
    49   24   25 ar
    50   24   62 1
    51   25   26 ar
    52   25   28 1
    53   26   27 ar
    54   26   63 1
    55   27   64 1
    56   29   30 1
    57   29   65 1
    58   29   66 1
    59   30   31 1
    60   30   67 1
    61   30   68 1
    62   31   32 1
    63   31   33 1
    64   31   41 1
    65   33   34 1
    66   33   69 1
    67   33   70 1
    68   34   35 1
    69   34   36 1
    70   34   40 1
    71   36   37 1
    72   36   71 1
    73   36   72 1
    74   37   38 2
    75   37   39 1
    76   40   73 1
    77   41   74 1
@<TRIPOS>MOLECULE
CHEMBL398523
   77    80     0     0     0
SMALL
USER_CHARGES

@<TRIPOS>ATOM
      1 C1          0.5138    0.6017    0.5543 C.3       1 <0>        -0.1534
      2 C2          0.5825   -0.7707    1.2272 C.3       1 <0>        -0.0109
      3 C3          1.1170   -0.6139    2.6522 C.3       1 <0>        -0.1493
      4 C4         -0.7961   -1.3779    1.2717 C.2       1 <0>        -0.1235
      5 C5         -1.2025   -2.5301    0.6890 C.2       1 <0>         0.0308
      6 N1         -2.5179   -2.6880    0.9895 N.pl3     1 <0>        -0.2364
      7 N2         -2.9260   -1.7078    1.7128 N.2       1 <0>        -0.2625
      8 C6         -1.9358   -0.8662    1.9367 C.2       1 <0>         0.0022
      9 C7         -2.0043    0.3781    2.7286 C.2       1 <0>         0.5936
     10 O1         -1.0511    1.1323    2.7595 O.2       1 <0>        -0.4806
     11 N3         -3.1234    0.6779    3.4173 N.am      1 <0>        -0.5968
     12 C8         -4.2304   -0.2843    3.5021 C.3       1 <0>         0.0733
     13 C9         -5.5200    0.4064    3.0475 C.3       1 <0>        -0.1301
     14 C10        -5.7294    1.6796    3.8704 C.3       1 <0>        -0.1213
     15 C11        -4.5596    2.6383    3.6366 C.3       1 <0>        -0.1255
     16 C12        -3.2569    1.9707    4.1026 C.3       1 <0>         0.1873
     17 C13        -2.0837    2.8503    3.7549 C.ar      1 <0>        -0.0550
     18 C14        -1.8631    3.2212    2.4417 C.ar      1 <0>        -0.0648
     19 C15        -0.7870    4.0281    2.1228 C.ar      1 <0>        -0.1181
     20 C16         0.0684    4.4645    3.1172 C.ar      1 <0>        -0.1190
     21 C17        -0.1528    4.0943    4.4306 C.ar      1 <0>        -0.1201
     22 C18        -1.2314    3.2909    4.7501 C.ar      1 <0>        -0.1140
     23 C19        -3.3138   -3.7632    0.5710 C.ar      1 <0>         0.1173
     24 C20        -2.8281   -5.0613    0.6543 C.ar      1 <0>        -0.0791
     25 C21        -3.6137   -6.1193    0.2414 C.ar      1 <0>        -0.1307
     26 C22        -4.8853   -5.8862   -0.2554 C.ar      1 <0>         0.1122
     27 C23        -5.3713   -4.5921   -0.3396 C.ar      1 <0>        -0.1391
     28 C24        -4.5911   -3.5320    0.0780 C.ar      1 <0>        -0.0720
     29 F1         -5.6524   -6.9226   -0.6588 F         1 <0>        -0.1310
     30 C25        -0.3552   -3.4621   -0.1383 C.3       1 <0>        -0.0566
     31 C26        -0.5293   -3.1284   -1.6214 C.3       1 <0>        -0.1444
     32 C27         0.2336   -4.1502   -2.4669 C.3       1 <0>         0.1144
     33 H1          1.2754   -4.1806   -2.1476 H         1 <0>         0.0997
     34 C28         0.1636   -3.7463   -3.9410 C.3       1 <0>        -0.1866
     35 C29         1.0287   -4.6962   -4.7717 C.3       1 <0>         0.1380
     36 H2          2.0427   -4.7076   -4.3719 H         1 <0>         0.0932
     37 C30         1.0589   -4.2191   -6.2251 C.3       1 <0>        -0.2197
     38 C31         2.0076   -5.0814   -7.0173 C.2       1 <0>         0.4907
     39 O2          2.6042   -5.9931   -6.4701 O.co2     1 <0>        -0.6811
     40 O3          2.1784   -4.8674   -8.2053 O.co2     1 <0>        -0.7131
     41 O4          0.4792   -6.0141   -4.7143 O.3       1 <0>        -0.5278
     42 O5         -0.3542   -5.4417   -2.2985 O.3       1 <0>        -0.5402
     43 H3          1.4868    1.0883    0.6215 H         1 <0>         0.0514
     44 H4          0.2403    0.4792   -0.4937 H         1 <0>         0.0402
     45 H5         -0.2347    1.2152    1.0559 H         1 <0>         0.0899
     46 H6          1.2477   -1.4210    0.6591 H         1 <0>         0.0712
     47 H7          0.4012   -0.0481    3.2485 H         1 <0>         0.0809
     48 H8          1.2618   -1.5987    3.0963 H         1 <0>         0.0407
     49 H9          2.0687   -0.0832    2.6269 H         1 <0>         0.0528
     50 H10        -4.0244   -1.1364    2.8544 H         1 <0>         0.1400
     51 H11        -4.3413   -0.6239    4.5319 H         1 <0>         0.0606
     52 H12        -5.4416    0.6646    1.9914 H         1 <0>         0.0653
     53 H13        -6.3648   -0.2660    3.1963 H         1 <0>         0.0733
     54 H14        -6.6592    2.1601    3.5658 H         1 <0>         0.0664
     55 H15        -5.7830    1.4234    4.9285 H         1 <0>         0.0639
     56 H16        -4.4903    2.8755    2.5750 H         1 <0>         0.0701
     57 H17        -4.7210    3.5545    4.2047 H         1 <0>         0.0765
     58 H18        -3.2900    1.8112    5.1803 H         1 <0>         0.0804
     59 H19        -2.5313    2.8803    1.6647 H         1 <0>         0.1046
     60 H20        -0.6142    4.3173    1.0967 H         1 <0>         0.1130
     61 H21         0.9096    5.0943    2.8680 H         1 <0>         0.1132
     62 H22         0.5157    4.4350    5.2075 H         1 <0>         0.1137
     63 H23        -1.4063    3.0048    5.7767 H         1 <0>         0.1115
     64 H24        -1.8364   -5.2435    1.0413 H         1 <0>         0.1471
     65 H25        -3.2361   -7.1291    0.3057 H         1 <0>         0.1512
     66 H26        -6.3629   -4.4123   -0.7279 H         1 <0>         0.1469
     67 H27        -4.9724   -2.5234    0.0170 H         1 <0>         0.1422
     68 H28         0.6921   -3.3446    0.1400 H         1 <0>         0.0939
     69 H29        -0.6657   -4.4913    0.0414 H         1 <0>         0.0894
     70 H30        -1.5878   -3.1612   -1.8793 H         1 <0>         0.0607
     71 H31        -0.1383   -2.1301   -1.8175 H         1 <0>         0.0756
     72 H32        -0.8695   -3.8018   -4.2842 H         1 <0>         0.0610
     73 H33         0.5304   -2.7263   -4.0561 H         1 <0>         0.0740
     74 H34         0.0588   -4.2919   -6.6523 H         1 <0>         0.0556
     75 H35         1.3945   -3.1826   -6.2604 H         1 <0>         0.0609
     76 H36        -0.4235   -6.0790   -5.0547 H         1 <0>         0.3493
     77 H37        -1.2830   -5.4887   -2.5634 H         1 <0>         0.3628
@<TRIPOS>BOND
     1    1    2 1
     2    1   43 1
     3    1   44 1
     4    1   45 1
     5    2    3 1
     6    2    4 1
     7    2   46 1
     8    3   47 1
     9    3   48 1
    10    3   49 1
    11    4    8 1
    12    4    5 2
    13    5    6 1
    14    5   30 1
    15    6    7 1
    16    6   23 1
    17    7    8 2
    18    8    9 1
    19    9   10 2
    20    9   11 am
    21   11   16 1
    22   11   12 1
    23   12   13 1
    24   12   50 1
    25   12   51 1
    26   13   14 1
    27   13   52 1
    28   13   53 1
    29   14   15 1
    30   14   54 1
    31   14   55 1
    32   15   16 1
    33   15   56 1
    34   15   57 1
    35   16   17 1
    36   16   58 1
    37   17   22 ar
    38   17   18 ar
    39   18   19 ar
    40   18   59 1
    41   19   20 ar
    42   19   60 1
    43   20   21 ar
    44   20   61 1
    45   21   22 ar
    46   21   62 1
    47   22   63 1
    48   23   28 ar
    49   23   24 ar
    50   24   25 ar
    51   24   64 1
    52   25   26 ar
    53   25   65 1
    54   26   27 ar
    55   26   29 1
    56   27   28 ar
    57   27   66 1
    58   28   67 1
    59   30   31 1
    60   30   68 1
    61   30   69 1
    62   31   32 1
    63   31   70 1
    64   31   71 1
    65   32   33 1
    66   32   34 1
    67   32   42 1
    68   34   35 1
    69   34   72 1
    70   34   73 1
    71   35   36 1
    72   35   37 1
    73   35   41 1
    74   37   38 1
    75   37   74 1
    76   37   75 1
    77   38   39 2
    78   38   40 1
    79   41   76 1
    80   42   77 1
@<TRIPOS>MOLECULE
CHEMBL398523__1
   77    80     0     0     0
SMALL
USER_CHARGES

@<TRIPOS>ATOM
      1 C1         -0.0002    1.1895   -1.5185 C.3       1 <0>        -0.1437
      2 C2         -0.9499    2.2307   -0.9229 C.3       1 <0>        -0.0289
      3 C3         -0.9287    3.4935   -1.7865 C.3       1 <0>        -0.1551
      4 C4         -2.3488    1.6714   -0.8853 C.2       1 <0>        -0.1228
      5 C5         -3.1301    1.3482   -1.9424 C.2       1 <0>         0.0344
      6 N1         -4.3051    0.8831   -1.4441 N.pl3     1 <0>        -0.2366
      7 N2         -4.2796    0.9061   -0.1597 N.2       1 <0>        -0.2620
      8 C6         -3.1189    1.3680    0.2627 C.2       1 <0>        -0.0030
      9 C7         -2.7026    1.5402    1.6688 C.2       1 <0>         0.6004
     10 O1         -1.6473    2.0856    1.9279 O.2       1 <0>        -0.4957
     11 N3         -3.4924    1.0928    2.6651 N.am      1 <0>        -0.5970
     12 C8         -4.7019    0.3131    2.3687 C.3       1 <0>         0.0836
     13 C9         -4.6513   -0.9962    3.1624 C.3       1 <0>        -0.1344
     14 C10        -4.4548   -0.6808    4.6471 C.3       1 <0>        -0.1206
     15 C11        -3.1269    0.0543    4.8428 C.3       1 <0>        -0.1275
     16 C12        -3.1569    1.3703    4.0683 C.3       1 <0>         0.1879
     17 C13        -1.8038    2.0293    4.1435 C.ar      1 <0>        -0.0629
     18 C14        -0.6732    1.3320    3.7608 C.ar      1 <0>        -0.0460
     19 C15         0.5681    1.9365    3.8297 C.ar      1 <0>        -0.1262
     20 C16         0.6787    3.2385    4.2810 C.ar      1 <0>        -0.1169
     21 C17        -0.4520    3.9361    4.6628 C.ar      1 <0>        -0.1256
     22 C18        -1.6937    3.3330    4.5898 C.ar      1 <0>        -0.1149
     23 C19        -5.3875    0.4427   -2.2180 C.ar      1 <0>         0.1178
     24 C20        -5.1699   -0.3911   -3.3068 C.ar      1 <0>        -0.0795
     25 C21        -6.2376   -0.8239   -4.0681 C.ar      1 <0>        -0.1310
     26 C22        -7.5248   -0.4267   -3.7464 C.ar      1 <0>         0.1121
     27 C23        -7.7438    0.4053   -2.6611 C.ar      1 <0>        -0.1390
     28 C24        -6.6793    0.8352   -1.8936 C.ar      1 <0>        -0.0719
     29 F1         -8.5681   -0.8511   -4.4924 F         1 <0>        -0.1310
     30 C25        -2.7652    1.4805   -3.3986 C.3       1 <0>        -0.0607
     31 C26        -3.3135    2.8007   -3.9439 C.3       1 <0>        -0.1520
     32 C27        -3.0350    2.8870   -5.4458 C.3       1 <0>         0.1147
     33 H1         -1.9685    2.7519   -5.6260 H         1 <0>         0.0995
     34 C28        -3.4706    4.2579   -5.9673 C.3       1 <0>        -0.1870
     35 C29        -3.0790    4.3912   -7.4403 C.3       1 <0>         0.1382
     36 H2         -2.0110    4.2035   -7.5507 H         1 <0>         0.0931
     37 C30        -3.4013    5.8052   -7.9278 C.3       1 <0>        -0.2197
     38 C31        -2.9042    5.9751   -9.3402 C.2       1 <0>         0.4907
     39 O2         -2.3441    5.0509   -9.9047 O.co2     1 <0>        -0.6811
     40 O3         -3.0622    7.0368   -9.9185 O.co2     1 <0>        -0.7132
     41 O4         -3.8123    3.4412   -8.2160 O.3       1 <0>        -0.5277
     42 O5         -3.7663    1.8646   -6.1254 O.3       1 <0>        -0.5401
     43 H3          0.9958    1.6210   -1.6179 H         1 <0>         0.0599
     44 H4          0.0441    0.3205   -0.8620 H         1 <0>         0.0514
     45 H5         -0.3639    0.8853   -2.5000 H         1 <0>         0.0549
     46 H6         -0.6300    2.4774    0.0895 H         1 <0>         0.1049
     47 H7         -1.2987    3.2577   -2.7842 H         1 <0>         0.0652
     48 H8         -1.5645    4.2542   -1.3335 H         1 <0>         0.0527
     49 H9          0.0924    3.8684   -1.8569 H         1 <0>         0.0594
     50 H10        -5.5844    0.8829    2.6597 H         1 <0>         0.0645
     51 H11        -4.7422    0.0924    1.3021 H         1 <0>         0.1311
     52 H12        -5.5860   -1.5403    3.0267 H         1 <0>         0.0746
     53 H13        -3.8203   -1.6053    2.8068 H         1 <0>         0.0643
     54 H14        -5.2733   -0.0511    4.9959 H         1 <0>         0.0648
     55 H15        -4.4431   -1.6097    5.2172 H         1 <0>         0.0667
     56 H16        -2.9766    0.2579    5.9030 H         1 <0>         0.0777
     57 H17        -2.3102   -0.5647    4.4713 H         1 <0>         0.0702
     58 H18        -3.9106    2.0283    4.5010 H         1 <0>         0.0805
     59 H19        -0.7596    0.3149    3.4082 H         1 <0>         0.1054
     60 H20         1.4514    1.3915    3.5314 H         1 <0>         0.1127
     61 H21         1.6485    3.7105    4.3355 H         1 <0>         0.1131
     62 H22        -0.3655    4.9531    5.0157 H         1 <0>         0.1138
     63 H23        -2.5775    3.8793    4.8846 H         1 <0>         0.1112
     64 H24        -4.1663   -0.7007   -3.5582 H         1 <0>         0.1469
     65 H25        -6.0688   -1.4721   -4.9152 H         1 <0>         0.1512
     66 H26        -8.7482    0.7145   -2.4122 H         1 <0>         0.1469
     67 H27        -6.8510    1.4799   -1.0443 H         1 <0>         0.1425
     68 H28        -1.6804    1.4663   -3.5041 H         1 <0>         0.0987
     69 H29        -3.1955    0.6497   -3.9578 H         1 <0>         0.0885
     70 H30        -4.3886    2.8469   -3.7704 H         1 <0>         0.0611
     71 H31        -2.8274    3.6335   -3.4357 H         1 <0>         0.0824
     72 H32        -4.5515    4.3577   -5.8682 H         1 <0>         0.0612
     73 H33        -2.9790    5.0398   -5.3884 H         1 <0>         0.0741
     74 H34        -4.4797    5.9618   -7.9008 H         1 <0>         0.0556
     75 H35        -2.9121    6.5330   -7.2804 H         1 <0>         0.0609
     76 H36        -4.7720    3.5488   -8.1650 H         1 <0>         0.3494
     77 H37        -4.7245    1.9228   -6.0091 H         1 <0>         0.3629
@<TRIPOS>BOND
     1    1    2 1
     2    1   43 1
     3    1   44 1
     4    1   45 1
     5    2    3 1
     6    2    4 1
     7    2   46 1
     8    3   47 1
     9    3   48 1
    10    3   49 1
    11    4    8 1
    12    4    5 2
    13    5    6 1
    14    5   30 1
    15    6    7 1
    16    6   23 1
    17    7    8 2
    18    8    9 1
    19    9   10 2
    20    9   11 am
    21   11   16 1
    22   11   12 1
    23   12   13 1
    24   12   50 1
    25   12   51 1
    26   13   14 1
    27   13   52 1
    28   13   53 1
    29   14   15 1
    30   14   54 1
    31   14   55 1
    32   15   16 1
    33   15   56 1
    34   15   57 1
    35   16   17 1
    36   16   58 1
    37   17   22 ar
    38   17   18 ar
    39   18   19 ar
    40   18   59 1
    41   19   20 ar
    42   19   60 1
    43   20   21 ar
    44   20   61 1
    45   21   22 ar
    46   21   62 1
    47   22   63 1
    48   23   28 ar
    49   23   24 ar
    50   24   25 ar
    51   24   64 1
    52   25   26 ar
    53   25   65 1
    54   26   27 ar
    55   26   29 1
    56   27   28 ar
    57   27   66 1
    58   28   67 1
    59   30   31 1
    60   30   68 1
    61   30   69 1
    62   31   32 1
    63   31   70 1
    64   31   71 1
    65   32   33 1
    66   32   34 1
    67   32   42 1
    68   34   35 1
    69   34   72 1
    70   34   73 1
    71   35   36 1
    72   35   37 1
    73   35   41 1
    74   37   38 1
    75   37   74 1
    76   37   75 1
    77   38   39 2
    78   38   40 1
    79   41   76 1
    80   42   77 1
@<TRIPOS>MOLECULE
CHEMBL46057
   44    46     0     0     0
SMALL
USER_CHARGES

@<TRIPOS>ATOM
      1 C1         -0.0167    1.3781    0.0096 C.ar      1 <0>        -0.1065
      2 C2          1.1709    2.0855    0.0021 C.ar      1 <0>        -0.1228
      3 C3          2.3773    1.4107   -0.0130 C.ar      1 <0>        -0.0939
      4 C4          2.3960    0.0285   -0.0201 C.ar      1 <0>        -0.1014
      5 C5          1.2084   -0.6789   -0.0117 C.ar      1 <0>        -0.0937
      6 C6          0.0021   -0.0041    0.0020 C.ar      1 <0>        -0.1226
      7 C7          3.7112   -0.7071   -0.0376 C.3       1 <0>         0.0989
      8 O1          4.1410   -0.9464    1.3041 O.3       1 <0>        -0.2974
      9 C8          5.3183   -1.6048    1.4665 C.ar      1 <0>         0.1599
     10 C9          6.0459   -2.0062    0.3542 C.ar      1 <0>        -0.1984
     11 C10         7.2421   -2.6751    0.5143 C.ar      1 <0>         0.0254
     12 C11         7.7207   -2.9483    1.7979 C.ar      1 <0>        -0.0781
     13 C12         6.9852   -2.5425    2.9140 C.ar      1 <0>         0.0186
     14 C13         5.7929   -1.8691    2.7442 C.ar      1 <0>        -0.1379
     15 Cl1         7.5739   -2.8786    4.5121 Cl        1 <0>        -0.0375
     16 C14         9.0006   -3.6646    1.9745 C.2       1 <0>        -0.0947
     17 C15         9.9260   -3.1776    2.7900 C.2       1 <0>        -0.1395
     18 C16        11.2316   -3.9083    2.9701 C.3       1 <0>         0.1448
     19 C17        12.3943   -2.9614    2.6609 C.3       1 <0>        -0.1480
     20 C18        13.7181   -3.7189    2.8048 C.3       1 <0>         0.1043
     21 H1         14.5479   -3.0512    2.5729 H         1 <0>         0.0818
     22 C19        13.7216   -4.9015    1.8277 C.3       1 <0>        -0.2045
     23 C20        12.4516   -5.6961    2.0396 C.2       1 <0>         0.4975
     24 O2         12.4845   -6.8967    2.1720 O.2       1 <0>        -0.4505
     25 O3         11.2814   -5.0257    2.0760 O.3       1 <0>        -0.3678
     26 O4         13.8510   -4.2006    4.1436 O.3       1 <0>        -0.5636
     27 Cl2         8.1505   -3.1769   -0.8773 Cl        1 <0>        -0.0420
     28 H2         -0.9591    1.9053    0.0259 H         1 <0>         0.1257
     29 H3          1.1563    3.1654    0.0076 H         1 <0>         0.1267
     30 H4          3.3051    1.9634   -0.0196 H         1 <0>         0.1249
     31 H5          1.2231   -1.7588   -0.0176 H         1 <0>         0.1251
     32 H6         -0.9258   -0.5567    0.0082 H         1 <0>         0.1268
     33 H7          3.5884   -1.6586   -0.5549 H         1 <0>         0.0767
     34 H8          4.4573   -0.1052   -0.5563 H         1 <0>         0.0765
     35 H9          5.6749   -1.7948   -0.6378 H         1 <0>         0.1470
     36 H10         5.2257   -1.5511    3.6066 H         1 <0>         0.1507
     37 H11         9.1826   -4.5849    1.4394 H         1 <0>         0.1403
     38 H12         9.7440   -2.2573    3.3251 H         1 <0>         0.1366
     39 H13        11.3124   -4.2611    3.9983 H         1 <0>         0.0984
     40 H14        12.2979   -2.5879    1.6415 H         1 <0>         0.0985
     41 H15        12.3767   -2.1241    3.3585 H         1 <0>         0.1009
     42 H16        13.7569   -4.5314    0.8031 H         1 <0>         0.1193
     43 H17        14.5877   -5.5346    2.0203 H         1 <0>         0.1088
     44 H18        14.6686   -4.6908    4.3059 H         1 <0>         0.3870
@<TRIPOS>BOND
     1    1    6 ar
     2    1    2 ar
     3    1   28 1
     4    2    3 ar
     5    2   29 1
     6    3    4 ar
     7    3   30 1
     8    4    5 ar
     9    4    7 1
    10    5    6 ar
    11    5   31 1
    12    6   32 1
    13    7    8 1
    14    7   33 1
    15    7   34 1
    16    8    9 1
    17    9   14 ar
    18    9   10 ar
    19   10   11 ar
    20   10   35 1
    21   11   12 ar
    22   11   27 1
    23   12   13 ar
    24   12   16 1
    25   13   14 ar
    26   13   15 1
    27   14   36 1
    28   16   17 2
    29   16   37 1
    30   17   18 1
    31   17   38 1
    32   18   25 1
    33   18   19 1
    34   18   39 1
    35   19   20 1
    36   19   40 1
    37   19   41 1
    38   20   21 1
    39   20   22 1
    40   20   26 1
    41   22   23 1
    42   22   42 1
    43   22   43 1
    44   23   24 2
    45   23   25 1
    46   26   44 1
@<TRIPOS>MOLECULE
CHEMBL46057__1
   44    46     0     0     0
SMALL
USER_CHARGES

@<TRIPOS>ATOM
      1 C1         -0.0167    1.3781    0.0096 C.ar      1 <0>        -0.1062
      2 C2          1.1709    2.0855    0.0021 C.ar      1 <0>        -0.1227
      3 C3          2.3773    1.4107   -0.0130 C.ar      1 <0>        -0.0937
      4 C4          2.3960    0.0285   -0.0201 C.ar      1 <0>        -0.1020
      5 C5          1.2084   -0.6789   -0.0117 C.ar      1 <0>        -0.0937
      6 C6          0.0021   -0.0041    0.0020 C.ar      1 <0>        -0.1226
      7 C7          3.7112   -0.7071   -0.0376 C.3       1 <0>         0.0987
      8 O1          4.1410   -0.9464    1.3041 O.3       1 <0>        -0.2967
      9 C8          5.3183   -1.6048    1.4665 C.ar      1 <0>         0.1640
     10 C9          6.0459   -2.0062    0.3542 C.ar      1 <0>        -0.2000
     11 C10         7.2421   -2.6751    0.5143 C.ar      1 <0>         0.0280
     12 C11         7.7207   -2.9483    1.7979 C.ar      1 <0>        -0.0833
     13 C12         6.9852   -2.5425    2.9140 C.ar      1 <0>         0.0215
     14 C13         5.7929   -1.8691    2.7442 C.ar      1 <0>        -0.1389
     15 Cl1         7.5739   -2.8786    4.5121 Cl        1 <0>        -0.0301
     16 C14         9.0006   -3.6646    1.9745 C.2       1 <0>        -0.0896
     17 C15         9.9260   -3.1776    2.7900 C.2       1 <0>        -0.1259
     18 C16        11.2316   -3.9083    2.9701 C.3       1 <0>         0.1445
     19 C17        12.3890   -2.9979    2.5510 C.3       1 <0>        -0.1521
     20 C18        13.7167   -3.7290    2.7745 C.3       1 <0>         0.1095
     21 H1         13.7392   -4.6373    2.1724 H         1 <0>         0.0686
     22 C19        13.8383   -4.0936    4.2595 C.3       1 <0>        -0.2048
     23 C20        12.5780   -4.8208    4.6746 C.2       1 <0>         0.4918
     24 O2         12.6337   -5.8634    5.2827 O.2       1 <0>        -0.4462
     25 O3         11.3903   -4.2716    4.3461 O.3       1 <0>        -0.3609
     26 O4         14.8011   -2.8780    2.3977 O.3       1 <0>        -0.5546
     27 Cl2         8.1505   -3.1769   -0.8773 Cl        1 <0>        -0.0427
     28 H2         -0.9591    1.9053    0.0259 H         1 <0>         0.1258
     29 H3          1.1563    3.1654    0.0076 H         1 <0>         0.1268
     30 H4          3.3051    1.9634   -0.0196 H         1 <0>         0.1250
     31 H5          1.2231   -1.7588   -0.0176 H         1 <0>         0.1251
     32 H6         -0.9258   -0.5567    0.0082 H         1 <0>         0.1268
     33 H7          3.5884   -1.6586   -0.5549 H         1 <0>         0.0770
     34 H8          4.4573   -0.1052   -0.5563 H         1 <0>         0.0770
     35 H9          5.6749   -1.7948   -0.6378 H         1 <0>         0.1478
     36 H10         5.2257   -1.5511    3.6066 H         1 <0>         0.1517
     37 H11         9.1826   -4.5849    1.4394 H         1 <0>         0.1328
     38 H12         9.7440   -2.2573    3.3251 H         1 <0>         0.1299
     39 H13        11.2335   -4.8074    2.3539 H         1 <0>         0.0855
     40 H14        12.2874   -2.7428    1.4962 H         1 <0>         0.1015
     41 H15        12.3702   -2.0870    3.1493 H         1 <0>         0.0940
     42 H16        14.7023   -4.7410    4.4094 H         1 <0>         0.1083
     43 H17        13.9511   -3.1861    4.8526 H         1 <0>         0.1189
     44 H18        15.6737   -3.2782    2.5135 H         1 <0>         0.3860
@<TRIPOS>BOND
     1    1    6 ar
     2    1    2 ar
     3    1   28 1
     4    2    3 ar
     5    2   29 1
     6    3    4 ar
     7    3   30 1
     8    4    5 ar
     9    4    7 1
    10    5    6 ar
    11    5   31 1
    12    6   32 1
    13    7    8 1
    14    7   33 1
    15    7   34 1
    16    8    9 1
    17    9   14 ar
    18    9   10 ar
    19   10   11 ar
    20   10   35 1
    21   11   12 ar
    22   11   27 1
    23   12   13 ar
    24   12   16 1
    25   13   14 ar
    26   13   15 1
    27   14   36 1
    28   16   17 2
    29   16   37 1
    30   17   18 1
    31   17   38 1
    32   18   25 1
    33   18   19 1
    34   18   39 1
    35   19   20 1
    36   19   40 1
    37   19   41 1
    38   20   21 1
    39   20   22 1
    40   20   26 1
    41   22   23 1
    42   22   42 1
    43   22   43 1
    44   23   24 2
    45   23   25 1
    46   26   44 1
@<TRIPOS>MOLECULE
CHEMBL253357
   77    80     0     0     0
SMALL
USER_CHARGES

@<TRIPOS>ATOM
      1 C1          0.1638    1.5453   -0.5999 C.3       1 <0>        -0.1512
      2 C2          0.2658    0.0283   -0.4294 C.3       1 <0>        -0.0204
      3 C3          1.1084   -0.2905    0.8073 C.3       1 <0>        -0.1451
      4 C4         -1.1146   -0.5521   -0.2599 C.2       1 <0>        -0.1476
      5 C5         -1.7580   -1.3938   -1.1024 C.2       1 <0>         0.0375
      6 N1         -2.9728   -1.6572   -0.5543 N.pl3     1 <0>        -0.2406
      7 N2         -3.0996   -1.0297    0.5596 N.2       1 <0>        -0.2576
      8 C6         -2.0078   -0.3363    0.8165 C.2       1 <0>         0.0105
      9 C7         -1.7644    0.5094    2.0022 C.2       1 <0>         0.6179
     10 O1         -1.8213    1.7201    1.9073 O.2       1 <0>        -0.5194
     11 N3         -1.4792   -0.0608    3.1896 N.am      1 <0>        -0.6016
     12 C8         -1.2905   -1.5140    3.2961 C.3       1 <0>         0.1106
     13 C9         -2.2213   -2.0536    4.3866 C.3       1 <0>        -0.1343
     14 C10        -1.9709   -1.2901    5.6891 C.3       1 <0>        -0.1094
     15 C11        -2.2809    0.1940    5.4802 C.3       1 <0>        -0.0614
     16 C12        -1.3452    0.7596    4.4010 C.3       1 <0>         0.1232
     17 C13        -2.0651    0.9396    6.7719 C.ar      1 <0>        -0.0748
     18 C14        -0.8173    0.9448    7.3667 C.ar      1 <0>        -0.1136
     19 C15        -0.6193    1.6287    8.5516 C.ar      1 <0>        -0.1180
     20 C16        -1.6690    2.3078    9.1414 C.ar      1 <0>        -0.1233
     21 C17        -2.9165    2.3034    8.5461 C.ar      1 <0>        -0.1179
     22 C18        -3.1135    1.6230    7.3590 C.ar      1 <0>        -0.1131
     23 C19        -3.9459   -2.4913   -1.1215 C.ar      1 <0>         0.1210
     24 C20        -3.5829   -3.7220   -1.6522 C.ar      1 <0>        -0.0803
     25 C21        -4.5431   -4.5425   -2.2106 C.ar      1 <0>        -0.1312
     26 C22        -5.8675   -4.1385   -2.2416 C.ar      1 <0>         0.1113
     27 C23        -6.2314   -2.9111   -1.7132 C.ar      1 <0>        -0.1388
     28 C24        -5.2751   -2.0906   -1.1483 C.ar      1 <0>        -0.0716
     29 F1         -6.8054   -4.9425   -2.7883 F         1 <0>        -0.1312
     30 C25        -1.2269   -1.9360   -2.4043 C.3       1 <0>        -0.0564
     31 C26        -1.7174   -1.0607   -3.5594 C.3       1 <0>        -0.1458
     32 C27        -1.2687   -1.6716   -4.8884 C.3       1 <0>         0.1150
     33 H1         -0.1877   -1.8112   -4.8775 H         1 <0>         0.0996
     34 C28        -1.6503   -0.7337   -6.0354 C.3       1 <0>        -0.1871
     35 C29        -1.0928   -1.2829   -7.3502 C.3       1 <0>         0.1383
     36 H2         -0.0180   -1.4361   -7.2533 H         1 <0>         0.0930
     37 C30        -1.3661   -0.2843   -8.4767 C.3       1 <0>        -0.2197
     38 C31        -0.7111   -0.7665   -9.7453 C.2       1 <0>         0.4906
     39 O2         -0.0838   -1.8119   -9.7482 O.co2     1 <0>        -0.6812
     40 O3         -0.8085   -0.1111  -10.7688 O.co2     1 <0>        -0.7131
     41 O4         -1.7260   -2.5276   -7.6531 O.3       1 <0>        -0.5280
     42 O5         -1.9103   -2.9351   -5.0727 O.3       1 <0>        -0.5405
     43 H3          1.1623    1.9651   -0.7220 H         1 <0>         0.0570
     44 H4         -0.4361    1.7724   -1.4811 H         1 <0>         0.0543
     45 H5         -0.3073    1.9792    0.2821 H         1 <0>         0.0701
     46 H6          0.7366   -0.4057   -1.3115 H         1 <0>         0.0826
     47 H7          0.6041    0.0859    1.6974 H         1 <0>         0.0527
     48 H8          1.2366   -1.3696    0.8913 H         1 <0>         0.0550
     49 H9          2.0846    0.1853    0.7143 H         1 <0>         0.0613
     50 H10        -1.5326   -1.9847    2.3432 H         1 <0>         0.0844
     51 H11        -0.2551   -1.7296    3.5599 H         1 <0>         0.0717
     52 H12        -3.2584   -1.9184    4.0793 H         1 <0>         0.0706
     53 H13        -2.0228   -3.1139    4.5425 H         1 <0>         0.0777
     54 H14        -2.6147   -1.6887    6.4731 H         1 <0>         0.0687
     55 H15        -0.9275   -1.4053    5.9827 H         1 <0>         0.0677
     56 H16        -3.3174    0.3079    5.1626 H         1 <0>         0.0839
     57 H17        -0.3142    0.7256    4.7531 H         1 <0>         0.0726
     58 H18        -1.6234    1.7895    4.1775 H         1 <0>         0.0960
     59 H19         0.0029    0.4142    6.9059 H         1 <0>         0.1215
     60 H20         0.3555    1.6322    9.0167 H         1 <0>         0.1216
     61 H21        -1.5144    2.8416   10.0675 H         1 <0>         0.1204
     62 H22        -3.7367    2.8336    9.0070 H         1 <0>         0.1214
     63 H23        -4.0873    1.6226    6.8919 H         1 <0>         0.1211
     64 H24        -2.5502   -4.0373   -1.6286 H         1 <0>         0.1470
     65 H25        -4.2611   -5.4996   -2.6238 H         1 <0>         0.1512
     66 H26        -7.2646   -2.5975   -1.7389 H         1 <0>         0.1468
     67 H27        -5.5601   -1.1358   -0.7318 H         1 <0>         0.1423
     68 H28        -0.1372   -1.9314   -2.3823 H         1 <0>         0.0938
     69 H29        -1.5831   -2.9565   -2.5451 H         1 <0>         0.0901
     70 H30        -2.8056   -1.0032   -3.5349 H         1 <0>         0.0614
     71 H31        -1.2983   -0.0594   -3.4598 H         1 <0>         0.0760
     72 H32        -2.7360   -0.6642   -6.1020 H         1 <0>         0.0613
     73 H33        -1.2335    0.2561   -5.8494 H         1 <0>         0.0742
     74 H34        -2.4414   -0.1982   -8.6330 H         1 <0>         0.0557
     75 H35        -0.9593    0.6899   -8.2053 H         1 <0>         0.0609
     76 H36        -2.6858   -2.4665   -7.7535 H         1 <0>         0.3496
     77 H37        -2.8759   -2.8867   -5.0924 H         1 <0>         0.3633
@<TRIPOS>BOND
     1    1    2 1
     2    1   43 1
     3    1   44 1
     4    1   45 1
     5    2    3 1
     6    2    4 1
     7    2   46 1
     8    3   47 1
     9    3   48 1
    10    3   49 1
    11    4    8 1
    12    4    5 2
    13    5    6 1
    14    5   30 1
    15    6    7 1
    16    6   23 1
    17    7    8 2
    18    8    9 1
    19    9   10 2
    20    9   11 am
    21   11   16 1
    22   11   12 1
    23   12   13 1
    24   12   50 1
    25   12   51 1
    26   13   14 1
    27   13   52 1
    28   13   53 1
    29   14   15 1
    30   14   54 1
    31   14   55 1
    32   15   16 1
    33   15   17 1
    34   15   56 1
    35   16   57 1
    36   16   58 1
    37   17   22 ar
    38   17   18 ar
    39   18   19 ar
    40   18   59 1
    41   19   20 ar
    42   19   60 1
    43   20   21 ar
    44   20   61 1
    45   21   22 ar
    46   21   62 1
    47   22   63 1
    48   23   28 ar
    49   23   24 ar
    50   24   25 ar
    51   24   64 1
    52   25   26 ar
    53   25   65 1
    54   26   27 ar
    55   26   29 1
    56   27   28 ar
    57   27   66 1
    58   28   67 1
    59   30   31 1
    60   30   68 1
    61   30   69 1
    62   31   32 1
    63   31   70 1
    64   31   71 1
    65   32   33 1
    66   32   34 1
    67   32   42 1
    68   34   35 1
    69   34   72 1
    70   34   73 1
    71   35   36 1
    72   35   37 1
    73   35   41 1
    74   37   38 1
    75   37   74 1
    76   37   75 1
    77   38   39 2
    78   38   40 1
    79   41   76 1
    80   42   77 1
@<TRIPOS>MOLECULE
CHEMBL253357__1
   77    80     0     0     0
SMALL
USER_CHARGES

@<TRIPOS>ATOM
      1 C1         -0.3892    1.9092   -0.0025 C.3       1 <0>        -0.1445
      2 C2         -0.1762    0.3943   -0.0257 C.3       1 <0>        -0.0207
      3 C3          0.8181    0.0022    1.0691 C.3       1 <0>        -0.1526
      4 C4         -1.4907   -0.3016    0.2170 C.2       1 <0>        -0.1463
      5 C5         -2.0716   -1.2476   -0.5575 C.2       1 <0>         0.0384
      6 N1         -3.2421   -1.5908    0.0403 N.pl3     1 <0>        -0.2406
      7 N2         -3.4009   -0.9137    1.1206 N.2       1 <0>        -0.2597
      8 C6         -2.3739   -0.1075    1.3057 C.2       1 <0>         0.0108
      9 C7         -2.1832    0.8253    2.4343 C.2       1 <0>         0.6183
     10 O1         -1.4016    0.5510    3.3243 O.2       1 <0>        -0.5208
     11 N3         -2.8756    1.9808    2.4779 N.am      1 <0>        -0.6005
     12 C8         -3.9081    2.2731    1.4744 C.3       1 <0>         0.1086
     13 C9         -5.2136    2.6203    2.1968 C.3       1 <0>        -0.1337
     14 C10        -4.9573    3.7602    3.1853 C.3       1 <0>        -0.1101
     15 C11        -3.9322    3.3115    4.2293 C.3       1 <0>        -0.0615
     16 C12        -2.6164    2.9694    3.5334 C.3       1 <0>         0.1221
     17 C13        -3.7046    4.4232    5.2210 C.ar      1 <0>        -0.0746
     18 C14        -3.2334    5.6489    4.7892 C.ar      1 <0>        -0.1135
     19 C15        -3.0246    6.6686    5.6989 C.ar      1 <0>        -0.1178
     20 C16        -3.2876    6.4627    7.0403 C.ar      1 <0>        -0.1232
     21 C17        -3.7597    5.2373    7.4719 C.ar      1 <0>        -0.1180
     22 C18        -3.9725    4.2190    6.5617 C.ar      1 <0>        -0.1130
     23 C19        -4.1451   -2.5440   -0.4500 C.ar      1 <0>         0.1205
     24 C20        -3.6800   -3.7650   -0.9199 C.ar      1 <0>        -0.0797
     25 C21        -4.5712   -4.7029   -1.4027 C.ar      1 <0>        -0.1308
     26 C22        -5.9282   -4.4262   -1.4184 C.ar      1 <0>         0.1117
     27 C23        -6.3940   -3.2088   -0.9506 C.ar      1 <0>        -0.1394
     28 C24        -5.5065   -2.2707   -0.4613 C.ar      1 <0>        -0.0711
     29 F1         -6.7986   -5.3450   -1.8911 F         1 <0>        -0.1312
     30 C25        -1.5231   -1.8132   -1.8422 C.3       1 <0>        -0.0576
     31 C26        -2.1225   -1.0568   -3.0294 C.3       1 <0>        -0.1443
     32 C27        -1.6609   -1.7080   -4.3346 C.3       1 <0>         0.1141
     33 H1         -0.5720   -1.7531   -4.3530 H         1 <0>         0.0996
     34 C28        -2.1571   -0.8795   -5.5213 C.3       1 <0>        -0.1864
     35 C29        -1.5922   -1.4591   -6.8197 C.3       1 <0>         0.1378
     36 H2         -0.5057   -1.5129   -6.7512 H         1 <0>         0.0930
     37 C30        -1.9854   -0.5596   -7.9933 C.3       1 <0>        -0.2196
     38 C31        -1.3279   -1.0614   -9.2531 C.2       1 <0>         0.4905
     39 O2         -0.6113   -2.0471   -9.2157 O.co2     1 <0>        -0.6810
     40 O3         -1.5126   -0.4817  -10.3096 O.co2     1 <0>        -0.7131
     41 O4         -2.1219   -2.7702   -7.0262 O.3       1 <0>        -0.5277
     42 O5         -2.1939   -3.0311   -4.4214 O.3       1 <0>        -0.5400
     43 H3          0.5730    2.4128   -0.0960 H         1 <0>         0.0611
     44 H4         -1.0329    2.1983   -0.8332 H         1 <0>         0.0556
     45 H5         -0.8593    2.1957    0.9382 H         1 <0>         0.0527
     46 H6          0.2180    0.0976   -0.9977 H         1 <0>         0.0827
     47 H7          0.3885    0.2233    2.0462 H         1 <0>         0.0711
     48 H8          1.0333   -1.0640    0.9996 H         1 <0>         0.0535
     49 H9          1.7409    0.5682    0.9415 H         1 <0>         0.0570
     50 H10        -3.5936    3.1181    0.8619 H         1 <0>         0.0711
     51 H11        -4.0617    1.3983    0.8425 H         1 <0>         0.0859
     52 H12        -5.9611    2.9324    1.4675 H         1 <0>         0.0787
     53 H13        -5.5746    1.7449    2.7366 H         1 <0>         0.0702
     54 H14        -4.5729    4.6272    2.6481 H         1 <0>         0.0682
     55 H15        -5.8900    4.0258    3.6831 H         1 <0>         0.0690
     56 H16        -4.3052    2.4296    4.7500 H         1 <0>         0.0835
     57 H17        -1.9179    2.5539    4.2598 H         1 <0>         0.0965
     58 H18        -2.1941    3.8725    3.0926 H         1 <0>         0.0724
     59 H19        -3.0279    5.8097    3.7412 H         1 <0>         0.1217
     60 H20        -2.6558    7.6260    5.3616 H         1 <0>         0.1217
     61 H21        -3.1239    7.2592    7.7511 H         1 <0>         0.1204
     62 H22        -3.9648    5.0764    8.5200 H         1 <0>         0.1213
     63 H23        -4.3449    3.2627    6.8984 H         1 <0>         0.1210
     64 H24        -2.6219   -3.9810   -0.9081 H         1 <0>         0.1469
     65 H25        -4.2098   -5.6526   -1.7685 H         1 <0>         0.1512
     66 H26        -7.4524   -2.9946   -0.9643 H         1 <0>         0.1469
     67 H27        -5.8705   -1.3235   -0.0919 H         1 <0>         0.1421
     68 H28        -0.4385   -1.7055   -1.8528 H         1 <0>         0.0940
     69 H29        -1.7841   -2.8690   -1.9149 H         1 <0>         0.0905
     70 H30        -3.2104   -1.0918   -2.9707 H         1 <0>         0.0616
     71 H31        -1.7905   -0.0189   -3.0039 H         1 <0>         0.0753
     72 H32        -3.2462   -0.9080   -5.5543 H         1 <0>         0.0612
     73 H33        -1.8239    0.1522   -5.4088 H         1 <0>         0.0738
     74 H34        -3.0682   -0.5764   -8.1171 H         1 <0>         0.0556
     75 H35        -1.6582    0.4609   -7.7944 H         1 <0>         0.0607
     76 H36        -3.0859   -2.7983   -7.0968 H         1 <0>         0.3495
     77 H37        -3.1601   -3.0674   -4.4105 H         1 <0>         0.3632
@<TRIPOS>BOND
     1    1    2 1
     2    1   43 1
     3    1   44 1
     4    1   45 1
     5    2    3 1
     6    2    4 1
     7    2   46 1
     8    3   47 1
     9    3   48 1
    10    3   49 1
    11    4    8 1
    12    4    5 2
    13    5    6 1
    14    5   30 1
    15    6    7 1
    16    6   23 1
    17    7    8 2
    18    8    9 1
    19    9   10 2
    20    9   11 am
    21   11   16 1
    22   11   12 1
    23   12   13 1
    24   12   50 1
    25   12   51 1
    26   13   14 1
    27   13   52 1
    28   13   53 1
    29   14   15 1
    30   14   54 1
    31   14   55 1
    32   15   16 1
    33   15   17 1
    34   15   56 1
    35   16   57 1
    36   16   58 1
    37   17   22 ar
    38   17   18 ar
    39   18   19 ar
    40   18   59 1
    41   19   20 ar
    42   19   60 1
    43   20   21 ar
    44   20   61 1
    45   21   22 ar
    46   21   62 1
    47   22   63 1
    48   23   28 ar
    49   23   24 ar
    50   24   25 ar
    51   24   64 1
    52   25   26 ar
    53   25   65 1
    54   26   27 ar
    55   26   29 1
    56   27   28 ar
    57   27   66 1
    58   28   67 1
    59   30   31 1
    60   30   68 1
    61   30   69 1
    62   31   32 1
    63   31   70 1
    64   31   71 1
    65   32   33 1
    66   32   34 1
    67   32   42 1
    68   34   35 1
    69   34   72 1
    70   34   73 1
    71   35   36 1
    72   35   37 1
    73   35   41 1
    74   37   38 1
    75   37   74 1
    76   37   75 1
    77   38   39 2
    78   38   40 1
    79   41   76 1
    80   42   77 1
@<TRIPOS>MOLECULE
CHEMBL249273
   79    82     0     0     0
SMALL
USER_CHARGES

@<TRIPOS>ATOM
      1 C1         -4.4995   -2.4153    6.0608 C.3       1 <0>        -0.1031
      2 C2         -3.9046   -3.1411    4.8817 C.2       1 <0>         0.0738
      3 C3         -4.5372   -3.4710    3.7396 C.2       1 <0>         0.0037
      4 N1         -3.6602   -4.1058    2.9478 N.pl3     1 <0>        -0.4698
      5 C4         -2.5080   -4.1817    3.5559 C.cat     1 <0>         0.3112
      6 N2         -2.6157   -3.5864    4.7633 N.pl3     1 <0>        -0.4987
      7 H1         -1.9116   -3.4937    5.4241 H         1 <0>         0.4664
      8 C5         -1.2622   -4.8225    3.0005 C.3       1 <0>         0.1693
      9 N3         -1.6268   -5.7457    1.9229 N.am      1 <0>        -0.7421
     10 C6         -0.6684   -6.4366    1.2745 C.2       1 <0>         0.6224
     11 O1          0.5052   -6.2277    1.5214 O.2       1 <0>        -0.4878
     12 C7         -1.0387   -7.4386    0.2732 C.2       1 <0>        -0.0567
     13 C8         -1.1739   -8.8043    0.4903 C.2       1 <0>        -0.0412
     14 C9         -1.5427   -9.3791   -0.7529 C.2       1 <0>        -0.1156
     15 C10        -1.6180   -8.3684   -1.6645 C.2       1 <0>         0.0874
     16 N4         -1.3217   -7.1971   -1.0521 N.pl3     1 <0>        -0.4038
     17 C11        -1.3020   -5.8825   -1.6984 C.3       1 <0>         0.1160
     18 C12        -2.3680   -4.9865   -1.0647 C.3       1 <0>        -0.1720
     19 C13         0.0762   -5.2442   -1.5140 C.3       1 <0>        -0.1710
     20 C14        -1.9795   -8.5277   -3.1188 C.3       1 <0>        -0.0560
     21 C15        -0.7094   -8.7719   -3.9362 C.3       1 <0>        -0.1480
     22 C16        -1.0764   -8.9337   -5.4127 C.3       1 <0>         0.1136
     23 H2         -1.8196   -9.7241   -5.5178 H         1 <0>         0.1000
     24 C17         0.1754   -9.3010   -6.2120 C.3       1 <0>        -0.1868
     25 C18        -0.2121   -9.5846   -7.6647 C.3       1 <0>         0.1376
     26 H3         -0.9855  -10.3522   -7.6912 H         1 <0>         0.0933
     27 C19         1.0169  -10.0721   -8.4346 C.3       1 <0>        -0.2198
     28 C20         0.6107  -10.4679   -9.8308 C.2       1 <0>         0.4898
     29 O2         -0.5539  -10.3693  -10.1779 O.co2     1 <0>        -0.6812
     30 O3          1.4467  -10.8868  -10.6132 O.co2     1 <0>        -0.7105
     31 O4         -0.7081   -8.3878   -8.2678 O.3       1 <0>        -0.5278
     32 O5         -1.6140   -7.7055   -5.9072 O.3       1 <0>        -0.5412
     33 C21        -1.7993  -10.8168   -1.0135 C.ar      1 <0>        -0.0219
     34 C22        -0.9612  -11.5330   -1.8660 C.ar      1 <0>        -0.0772
     35 C23        -1.2034  -12.8703   -2.1051 C.ar      1 <0>        -0.1482
     36 C24        -2.2780  -13.5008   -1.4994 C.ar      1 <0>         0.1023
     37 C25        -3.1137  -12.7928   -0.6512 C.ar      1 <0>        -0.1533
     38 C26        -2.8757  -11.4566   -0.4018 C.ar      1 <0>        -0.0734
     39 F1         -2.5119  -14.8100   -1.7370 F         1 <0>        -0.1379
     40 C27        -0.9723   -9.5204    1.7704 C.ar      1 <0>        -0.0166
     41 C28         0.0688  -10.4394    1.9024 C.ar      1 <0>        -0.0901
     42 C29         0.2518  -11.1032    3.0981 C.ar      1 <0>        -0.1121
     43 C30        -0.5947  -10.8589    4.1648 C.ar      1 <0>        -0.1165
     44 C31        -1.6294   -9.9490    4.0400 C.ar      1 <0>        -0.1226
     45 C32        -1.8192   -9.2746    2.8513 C.ar      1 <0>        -0.1146
     46 H4         -4.3704   -1.3410    5.9291 H         1 <0>         0.1055
     47 H5         -5.5621   -2.6476    6.1320 H         1 <0>         0.1115
     48 H6         -3.9963   -2.7324    6.9742 H         1 <0>         0.0945
     49 H7         -5.5699   -3.2613    3.5027 H         1 <0>         0.2295
     50 H8         -0.6001   -4.0502    2.6088 H         1 <0>         0.1372
     51 H9         -0.7520   -5.3713    3.7921 H         1 <0>         0.1327
     52 H10        -2.5579   -5.8596    1.6762 H         1 <0>         0.4004
     53 H11        -1.5096   -5.9976   -2.7623 H         1 <0>         0.1172
     54 H12        -2.0996   -4.7796   -0.0287 H         1 <0>         0.0514
     55 H13        -2.4307   -4.0495   -1.6179 H         1 <0>         0.0861
     56 H14        -3.3331   -5.4922   -1.0959 H         1 <0>         0.0705
     57 H15         0.8376   -5.8912   -1.9497 H         1 <0>         0.0729
     58 H16         0.0966   -4.2739   -2.0102 H         1 <0>         0.0810
     59 H17         0.2763   -5.1127   -0.4506 H         1 <0>         0.0649
     60 H18        -2.6547   -9.3756   -3.2345 H         1 <0>         0.0942
     61 H19        -2.4706   -7.6212   -3.4725 H         1 <0>         0.0819
     62 H20        -0.0342   -7.9240   -3.8204 H         1 <0>         0.0620
     63 H21        -0.2183   -9.6784   -3.5824 H         1 <0>         0.0774
     64 H22         0.8831   -8.4726   -6.1799 H         1 <0>         0.0616
     65 H23         0.6356  -10.1890   -5.7788 H         1 <0>         0.0745
     66 H24         1.7555   -9.2720   -8.4841 H         1 <0>         0.0557
     67 H25         1.4477  -10.9332   -7.9236 H         1 <0>         0.0611
     68 H26        -0.0714   -7.6601   -8.2792 H         1 <0>         0.3493
     69 H27        -1.0056   -6.9564   -5.8448 H         1 <0>         0.3624
     70 H28        -0.1237  -11.0421   -2.3392 H         1 <0>         0.1330
     71 H29        -0.5544  -13.4261   -2.7657 H         1 <0>         0.1394
     72 H30        -3.9505  -13.2882   -0.1814 H         1 <0>         0.1343
     73 H31        -3.5251  -10.9065    0.2630 H         1 <0>         0.1264
     74 H32         0.7301  -10.6312    1.0703 H         1 <0>         0.1245
     75 H33         1.0573  -11.8151    3.2015 H         1 <0>         0.1259
     76 H34        -0.4475  -11.3810    5.0987 H         1 <0>         0.1224
     77 H35        -2.2873   -9.7631    4.8760 H         1 <0>         0.1186
     78 H36        -2.6245   -8.5612    2.7565 H         1 <0>         0.1099
     79 H37        -3.8521   -4.4538    2.0629 H         1 <0>         0.4610
@<TRIPOS>BOND
     1    1    2 1
     2    1   46 1
     3    1   47 1
     4    1   48 1
     5    2    6 1
     6    2    3 2
     7    3    4 1
     8    3   49 1
     9    4    5 2
    10    4   79 1
    11    5    6 1
    12    5    8 1
    13    6    7 1
    14    8    9 1
    15    8   50 1
    16    8   51 1
    17    9   10 am
    18    9   52 1
    19   10   11 2
    20   10   12 1
    21   12   16 1
    22   12   13 2
    23   13   14 1
    24   13   40 1
    25   14   15 2
    26   14   33 1
    27   15   16 1
    28   15   20 1
    29   16   17 1
    30   17   18 1
    31   17   19 1
    32   17   53 1
    33   18   54 1
    34   18   55 1
    35   18   56 1
    36   19   57 1
    37   19   58 1
    38   19   59 1
    39   20   21 1
    40   20   60 1
    41   20   61 1
    42   21   22 1
    43   21   62 1
    44   21   63 1
    45   22   23 1
    46   22   24 1
    47   22   32 1
    48   24   25 1
    49   24   64 1
    50   24   65 1
    51   25   26 1
    52   25   27 1
    53   25   31 1
    54   27   28 1
    55   27   66 1
    56   27   67 1
    57   28   29 2
    58   28   30 1
    59   31   68 1
    60   32   69 1
    61   33   38 ar
    62   33   34 ar
    63   34   35 ar
    64   34   70 1
    65   35   36 ar
    66   35   71 1
    67   36   37 ar
    68   36   39 1
    69   37   38 ar
    70   37   72 1
    71   38   73 1
    72   40   45 ar
    73   40   41 ar
    74   41   42 ar
    75   41   74 1
    76   42   43 ar
    77   42   75 1
    78   43   44 ar
    79   43   76 1
    80   44   45 ar
    81   44   77 1
    82   45   78 1
@<TRIPOS>MOLECULE
CHEMBL249273__1
   78    81     0     0     0
SMALL
USER_CHARGES

@<TRIPOS>ATOM
      1 C1         -1.3321    3.9104   -8.3373 C.3       1 <0>        -0.0698
      2 C2         -2.7054    3.9567   -7.7184 C.2       1 <0>         0.0016
      3 C3         -3.7970    4.5332   -8.2567 C.2       1 <0>        -0.0430
      4 N1         -4.8225    4.3444   -7.3700 N.pl3     1 <0>        -0.5570
      5 C4         -4.3216    3.6587   -6.3199 C.2       1 <0>         0.1854
      6 N2         -3.0560    3.4260   -6.5376 N.2       1 <0>        -0.4639
      7 H1         -5.7381    4.6467   -7.4760 H         1 <0>         0.4217
      8 C5         -5.0969    3.2285   -5.1014 C.3       1 <0>         0.2081
      9 N3         -5.5681    1.8533   -5.2828 N.am      1 <0>        -0.7181
     10 C6         -6.2890    1.2547   -4.3141 C.2       1 <0>         0.6064
     11 O1         -6.4746    1.8234   -3.2539 O.2       1 <0>        -0.5147
     12 C7         -6.8488   -0.0798   -4.5368 C.2       1 <0>        -0.0303
     13 C8         -8.1349   -0.3667   -4.9776 C.2       1 <0>        -0.0597
     14 C9         -8.2350   -1.7798   -5.0474 C.2       1 <0>        -0.1224
     15 C10        -7.0350   -2.2946   -4.6560 C.2       1 <0>         0.0744
     16 N4         -6.1944   -1.2767   -4.3530 N.pl3     1 <0>        -0.4010
     17 C11        -4.8097   -1.4260   -3.8984 C.3       1 <0>         0.1184
     18 C12        -3.8654   -0.7967   -4.9247 C.3       1 <0>        -0.1730
     19 C13        -4.6374   -0.7248   -2.5495 C.3       1 <0>        -0.1701
     20 C14        -6.6960   -3.7610   -4.5791 C.3       1 <0>        -0.0525
     21 C15        -7.0425   -4.2922   -3.1867 C.3       1 <0>        -0.1476
     22 C16        -6.6982   -5.7809   -3.1086 C.3       1 <0>         0.1139
     23 H2         -7.2028   -6.3133   -3.9149 H         1 <0>         0.0985
     24 C17        -7.1587   -6.3408   -1.7613 C.3       1 <0>        -0.1867
     25 C18        -6.9281   -7.8531   -1.7318 C.3       1 <0>         0.1378
     26 H3         -7.4247   -8.3130   -2.5862 H         1 <0>         0.0927
     27 C19        -7.5016   -8.4313   -0.4365 C.3       1 <0>        -0.2194
     28 C20        -7.3851   -9.9335   -0.4621 C.2       1 <0>         0.4904
     29 O2         -6.8892  -10.4901   -1.4269 O.co2     1 <0>        -0.6811
     30 O3         -7.7866  -10.5923    0.4820 O.co2     1 <0>        -0.7133
     31 O4         -5.5261   -8.1225   -1.7939 O.3       1 <0>        -0.5280
     32 O5         -5.2852   -5.9505   -3.2371 O.3       1 <0>        -0.5417
     33 C21        -9.4272   -2.5555   -5.4690 C.ar      1 <0>        -0.0098
     34 C22       -10.0856   -3.3766   -4.5556 C.ar      1 <0>        -0.0794
     35 C23       -11.1944   -4.0959   -4.9520 C.ar      1 <0>        -0.1494
     36 C24       -11.6530   -4.0031   -6.2560 C.ar      1 <0>         0.0950
     37 C25       -11.0016   -3.1881   -7.1674 C.ar      1 <0>        -0.1529
     38 C26        -9.8955   -2.4607   -6.7782 C.ar      1 <0>        -0.0744
     39 F1        -12.7385   -4.7098   -6.6401 F         1 <0>        -0.1418
     40 C27        -9.1948    0.6124   -5.3099 C.ar      1 <0>        -0.0071
     41 C28       -10.3591    0.6710   -4.5439 C.ar      1 <0>        -0.0934
     42 C29       -11.3429    1.5859   -4.8584 C.ar      1 <0>        -0.1169
     43 C30       -11.1764    2.4439   -5.9308 C.ar      1 <0>        -0.1215
     44 C31       -10.0241    2.3903   -6.6946 C.ar      1 <0>        -0.1220
     45 C32        -9.0305    1.4838   -6.3868 C.ar      1 <0>        -0.1102
     46 H4         -1.2416    3.0164   -8.9543 H         1 <0>         0.0692
     47 H5         -1.1823    4.7954   -8.9557 H         1 <0>         0.0691
     48 H6         -0.5792    3.8859   -7.5495 H         1 <0>         0.0712
     49 H7         -3.8525    5.0461   -9.2055 H         1 <0>         0.1798
     50 H8         -4.4520    3.2789   -4.2240 H         1 <0>         0.1031
     51 H9         -5.9518    3.8902   -4.9624 H         1 <0>         0.0869
     52 H10        -5.3612    1.3736   -6.1001 H         1 <0>         0.4059
     53 H11        -4.5750   -2.4849   -3.7901 H         1 <0>         0.1102
     54 H12        -4.0215    0.2818   -4.9487 H         1 <0>         0.0704
     55 H13        -2.8330   -1.0083   -4.6461 H         1 <0>         0.0811
     56 H14        -4.0689   -1.2153   -5.9103 H         1 <0>         0.0655
     57 H15        -5.3263   -1.1579   -1.8243 H         1 <0>         0.0668
     58 H16        -3.6131   -0.8553   -2.2005 H         1 <0>         0.0787
     59 H17        -4.8500    0.3382   -2.6628 H         1 <0>         0.0710
     60 H18        -7.2691   -4.3062   -5.3290 H         1 <0>         0.0901
     61 H19        -5.6308   -3.8979   -4.7655 H         1 <0>         0.0808
     62 H20        -6.4693   -3.7469   -2.4368 H         1 <0>         0.0624
     63 H21        -8.1076   -4.1553   -3.0003 H         1 <0>         0.0760
     64 H22        -6.5898   -5.8709   -0.9590 H         1 <0>         0.0617
     65 H23        -8.2198   -6.1323   -1.6247 H         1 <0>         0.0739
     66 H24        -6.9454   -8.0381    0.4144 H         1 <0>         0.0557
     67 H25        -8.5508   -8.1497   -0.3462 H         1 <0>         0.0608
     68 H26        -5.0198   -7.7423   -1.0630 H         1 <0>         0.3494
     69 H27        -4.7713   -5.5024   -2.5513 H         1 <0>         0.3631
     70 H28        -9.7284   -3.4501   -3.5390 H         1 <0>         0.1326
     71 H29       -11.7053   -4.7325   -4.2448 H         1 <0>         0.1365
     72 H30       -11.3623   -3.1190   -8.1830 H         1 <0>         0.1324
     73 H31        -9.3909   -1.8222   -7.4881 H         1 <0>         0.1279
     74 H32       -10.4904    0.0015   -3.7067 H         1 <0>         0.1220
     75 H33       -12.2450    1.6320   -4.2663 H         1 <0>         0.1219
     76 H34       -11.9494    3.1583   -6.1730 H         1 <0>         0.1190
     77 H35        -9.9003    3.0623   -7.5310 H         1 <0>         0.1182
     78 H36        -8.1295    1.4459   -6.9810 H         1 <0>         0.1145
@<TRIPOS>BOND
     1    1   46 1
     2    1   47 1
     3    1   48 1
     4    1    2 1
     5    2    6 1
     6    2    3 2
     7    3   49 1
     8    3    4 1
     9    4    5 1
    10    4    7 1
    11    5    8 1
    12    5    6 2
    13    8    9 1
    14    8   50 1
    15    8   51 1
    16    9   10 am
    17    9   52 1
    18   10   11 2
    19   10   12 1
    20   12   16 1
    21   12   13 2
    22   13   14 1
    23   13   40 1
    24   14   15 2
    25   14   33 1
    26   15   16 1
    27   15   20 1
    28   16   17 1
    29   17   18 1
    30   17   19 1
    31   17   53 1
    32   18   54 1
    33   18   55 1
    34   18   56 1
    35   19   57 1
    36   19   58 1
    37   19   59 1
    38   20   21 1
    39   20   60 1
    40   20   61 1
    41   21   22 1
    42   21   62 1
    43   21   63 1
    44   22   23 1
    45   22   24 1
    46   22   32 1
    47   24   25 1
    48   24   64 1
    49   24   65 1
    50   25   26 1
    51   25   27 1
    52   25   31 1
    53   27   28 1
    54   27   66 1
    55   27   67 1
    56   28   29 2
    57   28   30 1
    58   31   68 1
    59   32   69 1
    60   33   38 ar
    61   33   34 ar
    62   34   35 ar
    63   34   70 1
    64   35   36 ar
    65   35   71 1
    66   36   37 ar
    67   36   39 1
    68   37   38 ar
    69   37   72 1
    70   38   73 1
    71   40   45 ar
    72   40   41 ar
    73   41   42 ar
    74   41   74 1
    75   42   43 ar
    76   42   75 1
    77   43   44 ar
    78   43   76 1
    79   44   45 ar
    80   44   77 1
    81   45   78 1
@<TRIPOS>MOLECULE
CHEMBL249273__2
   78    81     0     0     0
SMALL
USER_CHARGES

@<TRIPOS>ATOM
      1 C1          0.5935   -2.1606    8.4594 C.3       1 <0>        -0.0808
      2 C2          0.3118   -2.3399    6.9899 C.2       1 <0>        -0.0124
      3 C3          0.0824   -1.3633    6.0915 C.2       1 <0>        -0.0248
      4 N1         -0.1240   -1.9382    4.8974 N.2       1 <0>        -0.4637
      5 C4         -0.0313   -3.2339    5.0217 C.2       1 <0>         0.1815
      6 N2          0.2456   -3.5264    6.3107 N.pl3     1 <0>        -0.5557
      7 H1          0.3719   -4.4121    6.6856 H         1 <0>         0.4200
      8 C5         -0.1998   -4.2373    3.9099 C.3       1 <0>         0.2087
      9 N3         -1.6223   -4.5430    3.7395 N.am      1 <0>        -0.7181
     10 C6         -2.0143   -5.4218    2.7958 C.2       1 <0>         0.6063
     11 O1         -1.1970   -5.8953    2.0279 O.2       1 <0>        -0.5148
     12 C7         -3.4232   -5.8070    2.6942 C.2       1 <0>        -0.0301
     13 C8         -4.0110   -6.9270    3.2693 C.2       1 <0>        -0.0598
     14 C9         -5.3826   -6.8964    2.9093 C.2       1 <0>        -0.1225
     15 C10        -5.5802   -5.7852    2.1450 C.2       1 <0>         0.0745
     16 N4         -4.4062   -5.1219    2.0166 N.pl3     1 <0>        -0.4011
     17 C11        -4.2127   -3.8753    1.2718 C.3       1 <0>         0.1184
     18 C12        -3.7755   -2.7689    2.2340 C.3       1 <0>        -0.1731
     19 C13        -3.1340   -4.0800    0.2062 C.3       1 <0>        -0.1701
     20 C14        -6.8953   -5.3594    1.5447 C.3       1 <0>        -0.0525
     21 C15        -7.0460   -5.9801    0.1544 C.3       1 <0>        -0.1476
     22 C16        -8.3811   -5.5478   -0.4550 C.3       1 <0>         0.1139
     23 H2         -9.1920   -5.8056    0.2263 H         1 <0>         0.0985
     24 C17        -8.5888   -6.2661   -1.7899 C.3       1 <0>        -0.1867
     25 C18        -9.9769   -5.9307   -2.3390 C.3       1 <0>         0.1378
     26 H3        -10.7320   -6.1751   -1.5919 H         1 <0>         0.0927
     27 C19       -10.2335   -6.7449   -3.6087 C.3       1 <0>        -0.2194
     28 C20       -11.6448   -6.5078   -4.0809 C.2       1 <0>         0.4904
     29 O2        -12.3776   -5.7571   -3.4594 O.co2     1 <0>        -0.6812
     30 O3        -12.0540   -7.0666   -5.0843 O.co2     1 <0>        -0.7132
     31 O4        -10.0438   -4.5366   -2.6455 O.3       1 <0>        -0.5280
     32 O5         -8.3711   -4.1352   -0.6708 O.3       1 <0>        -0.5417
     33 C21        -6.4134   -7.8915    3.2942 C.ar      1 <0>        -0.0098
     34 C22        -7.0227   -8.6793    2.3193 C.ar      1 <0>        -0.0794
     35 C23        -7.9805   -9.6040    2.6819 C.ar      1 <0>        -0.1494
     36 C24        -8.3371   -9.7496    4.0126 C.ar      1 <0>         0.0950
     37 C25        -7.7341   -8.9686    4.9851 C.ar      1 <0>        -0.1528
     38 C26        -6.7711   -8.0454    4.6323 C.ar      1 <0>        -0.0745
     39 F1         -9.2761  -10.6555    4.3630 F         1 <0>        -0.1418
     40 C27        -3.3366   -7.9529    4.0970 C.ar      1 <0>        -0.0070
     41 C28        -3.2306   -9.2654    3.6366 C.ar      1 <0>        -0.0934
     42 C29        -2.6006  -10.2168    4.4123 C.ar      1 <0>        -0.1169
     43 C30        -2.0746   -9.8712    5.6444 C.ar      1 <0>        -0.1215
     44 C31        -2.1770   -8.5713    6.1067 C.ar      1 <0>        -0.1220
     45 C32        -2.7996   -7.6096    5.3378 C.ar      1 <0>        -0.1102
     46 H4          1.6678   -2.0589    8.6136 H         1 <0>         0.0755
     47 H5          0.0884   -1.2643    8.8195 H         1 <0>         0.0857
     48 H6          0.2283   -3.0287    9.0080 H         1 <0>         0.0662
     49 H7          0.0673   -0.3031    6.2965 H         1 <0>         0.1729
     50 H8          0.1963   -3.8224    2.9830 H         1 <0>         0.1032
     51 H9          0.3408   -5.1503    4.1596 H         1 <0>         0.0862
     52 H10        -2.2821   -4.1130    4.3058 H         1 <0>         0.4059
     53 H11        -5.1486   -3.5900    0.7914 H         1 <0>         0.1102
     54 H12        -2.7851   -2.9994    2.6268 H         1 <0>         0.0704
     55 H13        -3.7435   -1.8175    1.7032 H         1 <0>         0.0812
     56 H14        -4.4863   -2.7018    3.0576 H         1 <0>         0.0656
     57 H15        -3.4351   -4.8837   -0.4658 H         1 <0>         0.0668
     58 H16        -3.0061   -3.1593   -0.3629 H         1 <0>         0.0787
     59 H17        -2.1924   -4.3431    0.6882 H         1 <0>         0.0710
     60 H18        -7.7121   -5.6958    2.1833 H         1 <0>         0.0901
     61 H19        -6.9222   -4.2729    1.4624 H         1 <0>         0.0808
     62 H20        -6.2292   -5.6437   -0.4841 H         1 <0>         0.0624
     63 H21        -7.0190   -7.0667    0.2368 H         1 <0>         0.0760
     64 H22        -7.8287   -5.9402   -2.4999 H         1 <0>         0.0617
     65 H23        -8.5079   -7.3427   -1.6396 H         1 <0>         0.0738
     66 H24        -9.5339   -6.4366   -4.3856 H         1 <0>         0.0557
     67 H25       -10.0951   -7.8047   -3.3949 H         1 <0>         0.0609
     68 H26        -9.3985   -4.2474   -3.3051 H         1 <0>         0.3494
     69 H27        -7.6736   -3.8336   -1.2686 H         1 <0>         0.3631
     70 H28        -6.7458   -8.5660    1.2816 H         1 <0>         0.1326
     71 H29        -8.4532  -10.2149    1.9271 H         1 <0>         0.1365
     72 H30        -8.0153   -9.0852    6.0213 H         1 <0>         0.1324
     73 H31        -6.2982   -7.4401    5.3915 H         1 <0>         0.1279
     74 H32        -3.6411   -9.5364    2.6751 H         1 <0>         0.1220
     75 H33        -2.5182  -11.2334    4.0571 H         1 <0>         0.1219
     76 H34        -1.5824  -10.6195    6.2479 H         1 <0>         0.1190
     77 H35        -1.7650   -8.3079    7.0697 H         1 <0>         0.1181
     78 H36        -2.8749   -6.5941    5.6978 H         1 <0>         0.1145
@<TRIPOS>BOND
     1    1    2 1
     2    1   46 1
     3    1   47 1
     4    1   48 1
     5    2    6 1
     6    2    3 2
     7    3    4 1
     8    3   49 1
     9    4    5 2
    10    5    6 1
    11    5    8 1
    12    6    7 1
    13    8    9 1
    14    8   50 1
    15    8   51 1
    16    9   10 am
    17    9   52 1
    18   10   11 2
    19   10   12 1
    20   12   16 1
    21   12   13 2
    22   13   14 1
    23   13   40 1
    24   14   15 2
    25   14   33 1
    26   15   16 1
    27   15   20 1
    28   16   17 1
    29   17   18 1
    30   17   19 1
    31   17   53 1
    32   18   54 1
    33   18   55 1
    34   18   56 1
    35   19   57 1
    36   19   58 1
    37   19   59 1
    38   20   21 1
    39   20   60 1
    40   20   61 1
    41   21   22 1
    42   21   62 1
    43   21   63 1
    44   22   23 1
    45   22   24 1
    46   22   32 1
    47   24   25 1
    48   24   64 1
    49   24   65 1
    50   25   26 1
    51   25   27 1
    52   25   31 1
    53   27   28 1
    54   27   66 1
    55   27   67 1
    56   28   29 2
    57   28   30 1
    58   31   68 1
    59   32   69 1
    60   33   38 ar
    61   33   34 ar
    62   34   35 ar
    63   34   70 1
    64   35   36 ar
    65   35   71 1
    66   36   37 ar
    67   36   39 1
    68   37   38 ar
    69   37   72 1
    70   38   73 1
    71   40   45 ar
    72   40   41 ar
    73   41   42 ar
    74   41   74 1
    75   42   43 ar
    76   42   75 1
    77   43   44 ar
    78   43   76 1
    79   44   45 ar
    80   44   77 1
    81   45   78 1
@<TRIPOS>MOLECULE
CHEMBL438694
   65    67     0     0     0
SMALL
USER_CHARGES

@<TRIPOS>ATOM
      1 C1          0.2443    1.3135   -0.1716 C.3       1 <0>        -0.1739
      2 C2          0.1889   -0.2127   -0.0795 C.3       1 <0>         0.1186
      3 C3          0.8656   -0.6704    1.2141 C.3       1 <0>        -0.1755
      4 N1         -1.2088   -0.6516   -0.0811 N.pl3     1 <0>        -0.4018
      5 C4         -1.7656   -1.4945   -0.9835 C.2       1 <0>         0.0733
      6 C5         -3.0801   -1.6757   -0.6716 C.2       1 <0>        -0.1218
      7 C6         -3.3531   -0.9036    0.4865 C.2       1 <0>        -0.0587
      8 C7         -2.1633   -0.2777    0.8375 C.2       1 <0>        -0.0343
      9 C8         -1.9621    0.6202    1.9763 C.2       1 <0>         0.6071
     10 O1         -2.1817    1.8117    1.8583 O.2       1 <0>        -0.5224
     11 N2         -1.5338    0.1275    3.1554 N.am      1 <0>        -0.8449
     12 C9         -4.6522   -0.7906    1.1879 C.ar      1 <0>        -0.0103
     13 C10        -5.7454   -0.2071    0.5475 C.ar      1 <0>        -0.0951
     14 C11        -6.9533   -0.1046    1.2065 C.ar      1 <0>        -0.1182
     15 C12        -7.0813   -0.5786    2.4999 C.ar      1 <0>        -0.1215
     16 C13        -6.0006   -1.1579    3.1406 C.ar      1 <0>        -0.1203
     17 C14        -4.7893   -1.2723    2.4899 C.ar      1 <0>        -0.1090
     18 C15        -4.0479   -2.5250   -1.4085 C.ar      1 <0>        -0.0089
     19 C16        -4.4010   -2.2067   -2.7185 C.ar      1 <0>        -0.0815
     20 C17        -5.3016   -2.9994   -3.4001 C.ar      1 <0>        -0.1504
     21 C18        -5.8550   -4.1099   -2.7839 C.ar      1 <0>         0.0949
     22 C19        -5.5073   -4.4298   -1.4815 C.ar      1 <0>        -0.1508
     23 C20        -4.6024   -3.6465   -0.7947 C.ar      1 <0>        -0.0732
     24 F1         -6.7367   -4.8830   -3.4548 F         1 <0>        -0.1418
     25 C21        -1.0472   -2.1297   -2.1460 C.3       1 <0>        -0.0539
     26 C22        -0.4512   -3.4687   -1.7072 C.3       1 <0>        -0.1431
     27 C23         0.2782   -4.1136   -2.8875 C.3       1 <0>         0.1133
     28 H1         -0.4035   -4.1978   -3.7337 H         1 <0>         0.0984
     29 C24         0.7668   -5.5066   -2.4855 C.3       1 <0>        -0.1859
     30 C25         1.3856   -6.2003   -3.7008 C.3       1 <0>         0.1374
     31 H2          0.6651   -6.2116   -4.5186 H         1 <0>         0.0928
     32 C26         1.7608   -7.6370   -3.3317 C.3       1 <0>        -0.2192
     33 C27         2.2561   -8.3578   -4.5589 C.2       1 <0>         0.4903
     34 O2          2.3046   -7.7764   -5.6295 O.co2     1 <0>        -0.6809
     35 O3          2.6084   -9.5225   -4.4812 O.co2     1 <0>        -0.7133
     36 O4          2.5577   -5.4916   -4.1082 O.3       1 <0>        -0.5278
     37 O5          1.3970   -3.3043   -3.2557 O.3       1 <0>        -0.5417
     38 H3          1.2824    1.6427   -0.1279 H         1 <0>         0.0774
     39 H4         -0.2002    1.6370   -1.1128 H         1 <0>         0.0668
     40 H5         -0.3100    1.7481    0.6603 H         1 <0>         0.0742
     41 H6          0.7072   -0.6474   -0.9341 H         1 <0>         0.1105
     42 H7          0.8855   -1.7597    1.2481 H         1 <0>         0.0680
     43 H8          1.8856   -0.2873    1.2459 H         1 <0>         0.0805
     44 H9          0.3080   -0.2903    2.0701 H         1 <0>         0.0685
     45 H10        -1.2842   -0.8070    3.2287 H         1 <0>         0.4042
     46 H11        -1.4752    0.7074    3.9308 H         1 <0>         0.4061
     47 H12        -5.6465    0.1640   -0.4619 H         1 <0>         0.1210
     48 H13        -7.8005    0.3470    0.7117 H         1 <0>         0.1214
     49 H14        -8.0288   -0.4958    3.0117 H         1 <0>         0.1194
     50 H15        -6.1066   -1.5255    4.1506 H         1 <0>         0.1205
     51 H16        -3.9477   -1.7290    2.9894 H         1 <0>         0.1173
     52 H17        -3.9706   -1.3408   -3.1995 H         1 <0>         0.1311
     53 H18        -5.5757   -2.7536   -4.4154 H         1 <0>         0.1349
     54 H19        -5.9417   -5.2960   -1.0047 H         1 <0>         0.1335
     55 H20        -4.3280   -3.8995    0.2188 H         1 <0>         0.1288
     56 H21        -1.7511   -2.2951   -2.9616 H         1 <0>         0.0905
     57 H22        -0.2483   -1.4696   -2.4839 H         1 <0>         0.0803
     58 H23         0.2528   -3.3032   -0.8916 H         1 <0>         0.0607
     59 H24        -1.2501   -4.1288   -1.3693 H         1 <0>         0.0758
     60 H25         1.5155   -5.4160   -1.6986 H         1 <0>         0.0610
     61 H26        -0.0747   -6.0955   -2.1205 H         1 <0>         0.0739
     62 H27         2.5460   -7.6247   -2.5758 H         1 <0>         0.0555
     63 H28         0.8846   -8.1514   -2.9371 H         1 <0>         0.0609
     64 H29         3.2434   -5.4417   -3.4282 H         1 <0>         0.3491
     65 H30         2.0464   -3.1860   -2.5491 H         1 <0>         0.3625
@<TRIPOS>BOND
     1    1    2 1
     2    1   38 1
     3    1   39 1
     4    1   40 1
     5    2    3 1
     6    2    4 1
     7    2   41 1
     8    3   42 1
     9    3   43 1
    10    3   44 1
    11    4    8 1
    12    4    5 1
    13    5    6 2
    14    5   25 1
    15    6    7 1
    16    6   18 1
    17    7    8 2
    18    7   12 1
    19    8    9 1
    20    9   10 2
    21    9   11 am
    22   11   45 1
    23   11   46 1
    24   12   17 ar
    25   12   13 ar
    26   13   14 ar
    27   13   47 1
    28   14   15 ar
    29   14   48 1
    30   15   16 ar
    31   15   49 1
    32   16   17 ar
    33   16   50 1
    34   17   51 1
    35   18   23 ar
    36   18   19 ar
    37   19   20 ar
    38   19   52 1
    39   20   21 ar
    40   20   53 1
    41   21   22 ar
    42   21   24 1
    43   22   23 ar
    44   22   54 1
    45   23   55 1
    46   25   26 1
    47   25   56 1
    48   25   57 1
    49   26   27 1
    50   26   58 1
    51   26   59 1
    52   27   28 1
    53   27   29 1
    54   27   37 1
    55   29   30 1
    56   29   60 1
    57   29   61 1
    58   30   31 1
    59   30   32 1
    60   30   36 1
    61   32   33 1
    62   32   62 1
    63   32   63 1
    64   33   34 2
    65   33   35 1
    66   36   64 1
    67   37   65 1
@<TRIPOS>MOLECULE
CHEMBL99838
   70    72     0     0     0
SMALL
USER_CHARGES

@<TRIPOS>ATOM
      1 C1         -0.2654    1.4624    0.4190 C.3       1 <0>        -0.1396
      2 C2         -0.2340   -0.0507    0.1941 C.3       1 <0>        -0.0602
      3 C3          0.5094   -0.7228    1.3501 C.3       1 <0>        -0.1438
      4 C4         -1.6441   -0.5783    0.1293 C.ar      1 <0>        -0.0862
      5 C5         -2.4914   -0.4138    1.2051 C.ar      1 <0>        -0.0980
      6 C6         -3.7953   -0.9020    1.1445 C.ar      1 <0>        -0.0527
      7 C7         -4.2392   -1.5554   -0.0041 C.ar      1 <0>        -0.0992
      8 C8         -3.3876   -1.7169   -1.0765 C.ar      1 <0>        -0.0876
      9 C9         -2.0908   -1.2244   -1.0153 C.ar      1 <0>         0.1061
     10 O1         -1.2558   -1.3797   -2.0758 O.3       1 <0>        -0.3158
     11 C10        -0.4349   -2.5493   -2.0894 C.3       1 <0>         0.0348
     12 C11         0.4910   -2.5085   -3.3067 C.3       1 <0>         0.1193
     13 C12         1.2808   -3.8162   -3.3909 C.3       1 <0>        -0.1849
     14 C13         2.1133   -3.8274   -4.6745 C.3       1 <0>         0.1400
     15 H1          1.4618   -3.6573   -5.5316 H         1 <0>         0.0947
     16 C14         2.8056   -5.1839   -4.8214 C.3       1 <0>        -0.2193
     17 C15         3.5257   -5.2397   -6.1440 C.2       1 <0>         0.4907
     18 O2          3.4887   -4.2832   -6.8991 O.co2     1 <0>        -0.6802
     19 O3          4.1454   -6.2414   -6.4590 O.co2     1 <0>        -0.7129
     20 O4          3.0984   -2.7941   -4.6124 O.3       1 <0>        -0.5266
     21 O5          1.3979   -1.4116   -3.1787 O.3       1 <0>        -0.5307
     22 C16        -3.8668   -2.4231   -2.3185 C.3       1 <0>        -0.0716
     23 C17        -4.2456   -1.3881   -3.3797 C.3       1 <0>        -0.0779
     24 C18        -5.4548   -0.5835   -2.8986 C.3       1 <0>        -0.1123
     25 C19        -5.8336    0.4515   -3.9598 C.3       1 <0>        -0.1192
     26 C20        -6.1836   -0.2627   -5.2667 C.3       1 <0>        -0.1182
     27 C21        -4.9745   -1.0673   -5.7479 C.3       1 <0>        -0.1204
     28 C22        -4.5957   -2.1024   -4.6867 C.3       1 <0>        -0.1136
     29 C23        -4.7089   -0.7271    2.3002 C.ar      1 <0>        -0.0371
     30 C24        -4.2681   -0.0694    3.4469 C.ar      1 <0>        -0.1128
     31 C25        -5.1224    0.0909    4.5189 C.ar      1 <0>        -0.1172
     32 C26        -6.4141   -0.4002    4.4567 C.ar      1 <0>        -0.1229
     33 C27        -6.8570   -1.0539    3.3209 C.ar      1 <0>        -0.1171
     34 C28        -6.0130   -1.2148    2.2408 C.ar      1 <0>        -0.1124
     35 H2          0.7545    1.8440    0.4659 H         1 <0>         0.0592
     36 H3         -0.7951    1.9412   -0.4046 H         1 <0>         0.0569
     37 H4         -0.7782    1.6798    1.3560 H         1 <0>         0.0517
     38 H5          0.2787   -0.2681   -0.7429 H         1 <0>         0.0920
     39 H6         -0.0033   -0.5054    2.2871 H         1 <0>         0.0539
     40 H7          0.5318   -1.8008    1.1899 H         1 <0>         0.0525
     41 H8          1.5293   -0.3412    1.3970 H         1 <0>         0.0606
     42 H9         -2.1446    0.0925    2.0938 H         1 <0>         0.1257
     43 H10        -5.2490   -1.9351   -0.0538 H         1 <0>         0.1259
     44 H11         0.1633   -2.5840   -1.1789 H         1 <0>         0.0532
     45 H12        -1.0667   -3.4360   -2.1430 H         1 <0>         0.0583
     46 H13        -0.1039   -2.3844   -4.2116 H         1 <0>         0.1058
     47 H14         1.9421   -3.8974   -2.5282 H         1 <0>         0.0651
     48 H15         0.5891   -4.6585   -3.3990 H         1 <0>         0.0762
     49 H16         3.5229   -5.3154   -4.0113 H         1 <0>         0.0567
     50 H17         2.0606   -5.9785   -4.7796 H         1 <0>         0.0614
     51 H18         3.7143   -2.8818   -3.8721 H         1 <0>         0.3503
     52 H19         1.9607   -1.4561   -2.3936 H         1 <0>         0.3625
     53 H20        -3.0720   -3.0628   -2.7023 H         1 <0>         0.0737
     54 H21        -4.7383   -3.0317   -2.0771 H         1 <0>         0.0686
     55 H22        -3.4048   -0.7151   -3.5473 H         1 <0>         0.0796
     56 H23        -6.2957   -1.2565   -2.7309 H         1 <0>         0.0571
     57 H24        -5.2054   -0.0747   -1.9674 H         1 <0>         0.0615
     58 H25        -6.6951    1.0247   -3.6170 H         1 <0>         0.0570
     59 H26        -4.9928    1.1245   -4.1274 H         1 <0>         0.0611
     60 H27        -7.0245   -0.9357   -5.0991 H         1 <0>         0.0584
     61 H28        -6.4535    0.4746   -6.0228 H         1 <0>         0.0579
     62 H29        -5.2238   -1.5762   -6.6790 H         1 <0>         0.0605
     63 H30        -4.1336   -0.3943   -5.9155 H         1 <0>         0.0634
     64 H31        -3.7342   -2.6756   -5.0294 H         1 <0>         0.0639
     65 H32        -5.4365   -2.7754   -4.5190 H         1 <0>         0.0587
     66 H33        -3.2596    0.3138    3.4969 H         1 <0>         0.1240
     67 H34        -4.7818    0.6005    5.4081 H         1 <0>         0.1229
     68 H35        -7.0791   -0.2732    5.2981 H         1 <0>         0.1211
     69 H36        -7.8664   -1.4353    3.2777 H         1 <0>         0.1229
     70 H37        -6.3613   -1.7213    1.3528 H         1 <0>         0.1246
@<TRIPOS>BOND
     1    1    2 1
     2    1   35 1
     3    1   36 1
     4    1   37 1
     5    2    3 1
     6    2    4 1
     7    2   38 1
     8    3   39 1
     9    3   40 1
    10    3   41 1
    11    4    9 ar
    12    4    5 ar
    13    5    6 ar
    14    5   42 1
    15    6    7 ar
    16    6   29 1
    17    7    8 ar
    18    7   43 1
    19    8    9 ar
    20    8   22 1
    21    9   10 1
    22   10   11 1
    23   11   12 1
    24   11   44 1
    25   11   45 1
    26   12   13 1
    27   12   21 1
    28   12   46 1
    29   13   14 1
    30   13   47 1
    31   13   48 1
    32   14   15 1
    33   14   16 1
    34   14   20 1
    35   16   17 1
    36   16   49 1
    37   16   50 1
    38   17   18 2
    39   17   19 1
    40   20   51 1
    41   21   52 1
    42   22   23 1
    43   22   53 1
    44   22   54 1
    45   23   28 1
    46   23   24 1
    47   23   55 1
    48   24   25 1
    49   24   56 1
    50   24   57 1
    51   25   26 1
    52   25   58 1
    53   25   59 1
    54   26   27 1
    55   26   60 1
    56   26   61 1
    57   27   28 1
    58   27   62 1
    59   27   63 1
    60   28   64 1
    61   28   65 1
    62   29   34 ar
    63   29   30 ar
    64   30   31 ar
    65   30   66 1
    66   31   32 ar
    67   31   67 1
    68   32   33 ar
    69   32   68 1
    70   33   34 ar
    71   33   69 1
    72   34   70 1
@<TRIPOS>MOLECULE
CHEMBL99838__1
   70    72     0     0     0
SMALL
USER_CHARGES

@<TRIPOS>ATOM
      1 C1          0.1832    1.3037   -0.5835 C.3       1 <0>        -0.1404
      2 C2          0.1253   -0.2249   -0.6135 C.3       1 <0>        -0.0599
      3 C3          1.0230   -0.7909    0.4886 C.3       1 <0>        -0.1438
      4 C4         -1.2940   -0.6784   -0.3878 C.ar      1 <0>        -0.0869
      5 C5         -1.9490   -0.3379    0.7773 C.ar      1 <0>        -0.0975
      6 C6         -3.2615   -0.7576    0.9853 C.ar      1 <0>        -0.0524
      7 C7         -3.9084   -1.5207    0.0146 C.ar      1 <0>        -0.0994
      8 C8         -3.2485   -1.8581   -1.1481 C.ar      1 <0>        -0.0867
      9 C9         -1.9427   -1.4336   -1.3550 C.ar      1 <0>         0.1054
     10 O1         -1.2970   -1.7625   -2.5044 O.3       1 <0>        -0.3157
     11 C10        -0.5247   -2.9648   -2.4934 C.3       1 <0>         0.0348
     12 C11         0.2129   -3.1093   -3.8261 C.3       1 <0>         0.1174
     13 C12         1.1243   -4.3371   -3.7740 C.3       1 <0>        -0.1833
     14 C13         1.9539   -4.4113   -5.0574 C.3       1 <0>         0.1379
     15 H1          1.2890   -4.3999   -5.9210 H         1 <0>         0.1042
     16 C14         2.7729   -5.7036   -5.0613 C.3       1 <0>        -0.2185
     17 C15         3.4949   -5.8368   -6.3773 C.2       1 <0>         0.4907
     18 O2          3.3664   -4.9777   -7.2329 O.co2     1 <0>        -0.6799
     19 O3          4.2077   -6.8036   -6.5865 O.co2     1 <0>        -0.7128
     20 O4          2.8355   -3.2884   -5.1202 O.3       1 <0>        -0.5402
     21 O5         -0.7373   -3.2659   -4.8819 O.3       1 <0>        -0.5422
     22 C16        -3.9472   -2.6830   -2.1980 C.3       1 <0>        -0.0697
     23 C17        -4.4603   -1.7654   -3.3096 C.3       1 <0>        -0.0769
     24 C18        -5.5445   -0.8426   -2.7494 C.3       1 <0>        -0.1128
     25 C19        -6.0575    0.0750   -3.8610 C.3       1 <0>        -0.1192
     26 C20        -6.6435   -0.7725   -4.9921 C.3       1 <0>        -0.1183
     27 C21        -5.5593   -1.6953   -5.5523 C.3       1 <0>        -0.1198
     28 C22        -5.0463   -2.6129   -4.4407 C.3       1 <0>        -0.1115
     29 C23        -3.9686   -0.3934    2.2377 C.ar      1 <0>        -0.0373
     30 C24        -3.3248    0.3739    3.2065 C.ar      1 <0>        -0.1127
     31 C25        -3.9877    0.7102    4.3695 C.ar      1 <0>        -0.1172
     32 C26        -5.2884    0.2866    4.5744 C.ar      1 <0>        -0.1228
     33 C27        -5.9323   -0.4752    3.6161 C.ar      1 <0>        -0.1172
     34 C28        -5.2811   -0.8125    2.4469 C.ar      1 <0>        -0.1123
     35 H2          1.2098    1.6317   -0.7468 H         1 <0>         0.0596
     36 H3         -0.4563    1.7070   -1.3687 H         1 <0>         0.0571
     37 H4         -0.1627    1.6615    0.3863 H         1 <0>         0.0529
     38 H5          0.4712   -0.5826   -1.5833 H         1 <0>         0.0881
     39 H6          0.6772   -0.4332    1.4584 H         1 <0>         0.0545
     40 H7          0.9818   -1.8800    0.4673 H         1 <0>         0.0533
     41 H8          2.0496   -0.4629    0.3254 H         1 <0>         0.0611
     42 H9         -1.4451    0.2532    1.5278 H         1 <0>         0.1260
     43 H10        -4.9254   -1.8477    0.1733 H         1 <0>         0.1258
     44 H11         0.1995   -2.9241   -1.6798 H         1 <0>         0.0598
     45 H12        -1.1855   -3.8197   -2.3493 H         1 <0>         0.0534
     46 H13         0.8138   -2.2182   -4.0072 H         1 <0>         0.1130
     47 H14         1.7904   -4.2589   -2.9147 H         1 <0>         0.0699
     48 H15         0.5165   -5.2372   -3.6817 H         1 <0>         0.0715
     49 H16         3.4997   -5.6756   -4.2494 H         1 <0>         0.0566
     50 H17         2.1075   -6.5559   -4.9241 H         1 <0>         0.0620
     51 H18         3.4571   -3.2345   -4.3814 H         1 <0>         0.3536
     52 H19        -1.3542   -3.9988   -4.7504 H         1 <0>         0.3658
     53 H20        -3.2473   -3.4057   -2.6175 H         1 <0>         0.0727
     54 H21        -4.7870   -3.2108   -1.7460 H         1 <0>         0.0674
     55 H22        -3.6359   -1.1654   -3.6949 H         1 <0>         0.0810
     56 H23        -6.3689   -1.4427   -2.3642 H         1 <0>         0.0565
     57 H24        -5.1270   -0.2389   -1.9436 H         1 <0>         0.0610
     58 H25        -6.8299    0.7324   -3.4619 H         1 <0>         0.0566
     59 H26        -5.2331    0.6750   -4.2463 H         1 <0>         0.0612
     60 H27        -7.4679   -1.3725   -4.6068 H         1 <0>         0.0579
     61 H28        -7.0090   -0.1188   -5.7840 H         1 <0>         0.0575
     62 H29        -5.9768   -2.2990   -6.3581 H         1 <0>         0.0596
     63 H30        -4.7349   -1.0952   -5.9375 H         1 <0>         0.0641
     64 H31        -4.2739   -3.2703   -4.8398 H         1 <0>         0.0648
     65 H32        -5.8707   -3.2129   -4.0554 H         1 <0>         0.0568
     66 H33        -2.3090    0.7045    3.0479 H         1 <0>         0.1241
     67 H34        -3.4897    1.3048    5.1210 H         1 <0>         0.1230
     68 H35        -5.8031    0.5515    5.4862 H         1 <0>         0.1212
     69 H36        -6.9480   -0.8032    3.7813 H         1 <0>         0.1229
     70 H37        -5.7863   -1.4036    1.6974 H         1 <0>         0.1245
@<TRIPOS>BOND
     1    1    2 1
     2    1   35 1
     3    1   36 1
     4    1   37 1
     5    2    3 1
     6    2    4 1
     7    2   38 1
     8    3   39 1
     9    3   40 1
    10    3   41 1
    11    4    9 ar
    12    4    5 ar
    13    5    6 ar
    14    5   42 1
    15    6    7 ar
    16    6   29 1
    17    7    8 ar
    18    7   43 1
    19    8    9 ar
    20    8   22 1
    21    9   10 1
    22   10   11 1
    23   11   12 1
    24   11   44 1
    25   11   45 1
    26   12   13 1
    27   12   21 1
    28   12   46 1
    29   13   14 1
    30   13   47 1
    31   13   48 1
    32   14   15 1
    33   14   16 1
    34   14   20 1
    35   16   17 1
    36   16   49 1
    37   16   50 1
    38   17   18 2
    39   17   19 1
    40   20   51 1
    41   21   52 1
    42   22   23 1
    43   22   53 1
    44   22   54 1
    45   23   28 1
    46   23   24 1
    47   23   55 1
    48   24   25 1
    49   24   56 1
    50   24   57 1
    51   25   26 1
    52   25   58 1
    53   25   59 1
    54   26   27 1
    55   26   60 1
    56   26   61 1
    57   27   28 1
    58   27   62 1
    59   27   63 1
    60   28   64 1
    61   28   65 1
    62   29   34 ar
    63   29   30 ar
    64   30   31 ar
    65   30   66 1
    66   31   32 ar
    67   31   67 1
    68   32   33 ar
    69   32   68 1
    70   33   34 ar
    71   33   69 1
    72   34   70 1
@<TRIPOS>MOLECULE
CHEMBL296915
   52    54     0     0     0
SMALL
USER_CHARGES

@<TRIPOS>ATOM
      1 C1         -0.0167    1.3828    0.0096 C.ar      1 <0>        -0.1979
      2 C2          1.1719    2.0895    0.0021 C.ar      1 <0>         0.0126
      3 C3          2.3792    1.4142   -0.0131 C.ar      1 <0>        -0.1390
      4 C4          2.4000    0.0305   -0.0207 C.ar      1 <0>         0.0130
      5 C5          1.2138   -0.6796   -0.0132 C.ar      1 <0>        -0.1022
      6 C6          0.0021   -0.0041    0.0020 C.ar      1 <0>         0.1617
      7 O1         -1.1649   -0.7004    0.0099 O.3       1 <0>        -0.2970
      8 C7         -2.3744    0.0606    0.0260 C.3       1 <0>         0.0586
      9 C8         -3.5742   -0.8887    0.0328 C.3       1 <0>        -0.0832
     10 C9         -3.6089   -1.6762   -1.2785 C.3       1 <0>        -0.1140
     11 C10        -4.8088   -2.6255   -1.2717 C.3       1 <0>        -0.1204
     12 C11        -6.0990   -1.8157   -1.1288 C.3       1 <0>        -0.1225
     13 C12        -6.0643   -1.0282    0.1825 C.3       1 <0>        -0.1179
     14 C13        -4.8644   -0.0789    0.1757 C.3       1 <0>        -0.1131
     15 C14         1.2370   -2.1863   -0.0220 C.3       1 <0>        -0.0767
     16 C15         1.2589   -2.7045    1.4174 C.3       1 <0>        -0.1060
     17 C16         1.2825   -4.2343    1.4085 C.3       1 <0>         0.1120
     18 C17         1.1836   -4.7554    2.8446 C.3       1 <0>        -0.1534
     19 C18         1.2492   -6.2860    2.8351 C.3       1 <0>         0.1046
     20 H1          1.1919   -6.6604    3.8572 H         1 <0>         0.0794
     21 C19         2.5768   -6.7216    2.2019 C.3       1 <0>        -0.2051
     22 C20         2.7187   -6.0219    0.8679 C.2       1 <0>         0.4960
     23 O2          3.0132   -6.6380   -0.1289 O.2       1 <0>        -0.4531
     24 O3          2.5074   -4.6901    0.8235 O.3       1 <0>        -0.3656
     25 O4          0.1587   -6.8071    2.0726 O.3       1 <0>        -0.5632
     26 Cl1         3.9165   -0.8141   -0.0403 Cl        1 <0>        -0.0378
     27 Cl2         1.1490    3.8254    0.0111 Cl        1 <0>        -0.0518
     28 H2         -0.9590    1.9103    0.0260 H         1 <0>         0.1444
     29 H3          3.3066    1.9676   -0.0193 H         1 <0>         0.1463
     30 H4         -2.3994    0.6842    0.9196 H         1 <0>         0.0663
     31 H5         -2.4170    0.6938   -0.8603 H         1 <0>         0.0662
     32 H6         -3.4851   -1.5809    0.8701 H         1 <0>         0.0834
     33 H7         -3.6980   -0.9840   -2.1158 H         1 <0>         0.0615
     34 H8         -2.6897   -2.2531   -1.3803 H         1 <0>         0.0699
     35 H9         -4.8335   -3.1865   -2.2059 H         1 <0>         0.0631
     36 H10        -4.7197   -3.3177   -0.4344 H         1 <0>         0.0627
     37 H11        -6.1881   -1.1235   -1.9661 H         1 <0>         0.0617
     38 H12        -6.9538   -2.4920   -1.1240 H         1 <0>         0.0622
     39 H13        -6.9835   -0.4513    0.2843 H         1 <0>         0.0648
     40 H14        -5.9752   -1.7204    1.0198 H         1 <0>         0.0636
     41 H15        -4.8397    0.4821    1.1099 H         1 <0>         0.0654
     42 H16        -4.9536    0.6133   -0.6616 H         1 <0>         0.0659
     43 H17         0.3478   -2.5605   -0.5293 H         1 <0>         0.0843
     44 H18         2.1275   -2.5329   -0.5465 H         1 <0>         0.0899
     45 H19         2.1482   -2.3304    1.9248 H         1 <0>         0.0781
     46 H20         0.3685   -2.3579    1.9419 H         1 <0>         0.0892
     47 H21         0.4401   -4.6078    0.8264 H         1 <0>         0.0873
     48 H22         2.0114   -4.3596    3.4330 H         1 <0>         0.0960
     49 H23         0.2389   -4.4346    3.2837 H         1 <0>         0.0981
     50 H24         3.4042   -6.4413    2.8537 H         1 <0>         0.1181
     51 H25         2.5758   -7.8013    2.0522 H         1 <0>         0.1074
     52 H26         0.1384   -7.7727    2.0245 H         1 <0>         0.3861
@<TRIPOS>BOND
     1    1    6 ar
     2    1    2 ar
     3    1   28 1
     4    2    3 ar
     5    2   27 1
     6    3    4 ar
     7    3   29 1
     8    4    5 ar
     9    4   26 1
    10    5    6 ar
    11    5   15 1
    12    6    7 1
    13    7    8 1
    14    8    9 1
    15    8   30 1
    16    8   31 1
    17    9   14 1
    18    9   10 1
    19    9   32 1
    20   10   11 1
    21   10   33 1
    22   10   34 1
    23   11   12 1
    24   11   35 1
    25   11   36 1
    26   12   13 1
    27   12   37 1
    28   12   38 1
    29   13   14 1
    30   13   39 1
    31   13   40 1
    32   14   41 1
    33   14   42 1
    34   15   16 1
    35   15   43 1
    36   15   44 1
    37   16   17 1
    38   16   45 1
    39   16   46 1
    40   17   24 1
    41   17   18 1
    42   17   47 1
    43   18   19 1
    44   18   48 1
    45   18   49 1
    46   19   20 1
    47   19   21 1
    48   19   25 1
    49   21   22 1
    50   21   50 1
    51   21   51 1
    52   22   23 2
    53   22   24 1
    54   25   52 1
@<TRIPOS>MOLECULE
CHEMBL296915__1
   52    54     0     0     0
SMALL
USER_CHARGES

@<TRIPOS>ATOM
      1 C1         -0.0167    1.3828    0.0096 C.ar      1 <0>        -0.1979
      2 C2          1.1719    2.0895    0.0021 C.ar      1 <0>         0.0135
      3 C3          2.3792    1.4142   -0.0131 C.ar      1 <0>        -0.1393
      4 C4          2.4000    0.0305   -0.0207 C.ar      1 <0>         0.0132
      5 C5          1.2138   -0.6796   -0.0132 C.ar      1 <0>        -0.1037
      6 C6          0.0021   -0.0041    0.0020 C.ar      1 <0>         0.1645
      7 O1         -1.1649   -0.7004    0.0099 O.3       1 <0>        -0.2934
      8 C7         -2.3744    0.0606    0.0260 C.3       1 <0>         0.0588
      9 C8         -3.5742   -0.8887    0.0328 C.3       1 <0>        -0.0830
     10 C9         -3.6089   -1.6762   -1.2785 C.3       1 <0>        -0.1134
     11 C10        -4.8088   -2.6255   -1.2717 C.3       1 <0>        -0.1201
     12 C11        -6.0990   -1.8157   -1.1288 C.3       1 <0>        -0.1221
     13 C12        -6.0643   -1.0282    0.1825 C.3       1 <0>        -0.1178
     14 C13        -4.8644   -0.0789    0.1757 C.3       1 <0>        -0.1128
     15 C14         1.2370   -2.1863   -0.0220 C.3       1 <0>        -0.0766
     16 C15         1.2589   -2.7045    1.4174 C.3       1 <0>        -0.1046
     17 C16         1.2825   -4.2343    1.4085 C.3       1 <0>         0.1110
     18 C17         1.4252   -4.7517    2.8423 C.3       1 <0>        -0.1555
     19 C18         1.4068   -6.2836    2.8335 C.3       1 <0>         0.1088
     20 H1          2.2378   -6.6553    2.2341 H         1 <0>         0.0676
     21 C19         0.0813   -6.7602    2.2260 C.3       1 <0>        -0.2050
     22 C20        -0.1080   -6.0656    0.8952 C.2       1 <0>         0.4918
     23 O2         -0.4021   -6.6909   -0.0960 O.2       1 <0>        -0.4482
     24 O3          0.0612   -4.7280    0.8471 O.3       1 <0>        -0.3611
     25 O4          1.5257   -6.7714    4.1714 O.3       1 <0>        -0.5556
     26 Cl1         3.9165   -0.8141   -0.0403 Cl        1 <0>        -0.0436
     27 Cl2         1.1490    3.8254    0.0111 Cl        1 <0>        -0.0511
     28 H2         -0.9590    1.9103    0.0260 H         1 <0>         0.1448
     29 H3          3.3066    1.9676   -0.0193 H         1 <0>         0.1465
     30 H4         -2.3994    0.6842    0.9196 H         1 <0>         0.0660
     31 H5         -2.4170    0.6938   -0.8603 H         1 <0>         0.0661
     32 H6         -3.4851   -1.5809    0.8701 H         1 <0>         0.0834
     33 H7         -3.6980   -0.9840   -2.1158 H         1 <0>         0.0608
     34 H8         -2.6897   -2.2531   -1.3803 H         1 <0>         0.0711
     35 H9         -4.8335   -3.1865   -2.2059 H         1 <0>         0.0630
     36 H10        -4.7197   -3.3177   -0.4344 H         1 <0>         0.0622
     37 H11        -6.1881   -1.1235   -1.9661 H         1 <0>         0.0616
     38 H12        -6.9538   -2.4920   -1.1240 H         1 <0>         0.0619
     39 H13        -6.9835   -0.4513    0.2843 H         1 <0>         0.0647
     40 H14        -5.9752   -1.7204    1.0198 H         1 <0>         0.0633
     41 H15        -4.8397    0.4821    1.1099 H         1 <0>         0.0650
     42 H16        -4.9536    0.6133   -0.6616 H         1 <0>         0.0657
     43 H17         0.3478   -2.5605   -0.5293 H         1 <0>         0.0940
     44 H18         2.1275   -2.5329   -0.5465 H         1 <0>         0.0808
     45 H19         2.1482   -2.3304    1.9248 H         1 <0>         0.0895
     46 H20         0.3685   -2.3579    1.9419 H         1 <0>         0.0830
     47 H21         2.1247   -4.5818    0.8101 H         1 <0>         0.0814
     48 H22         2.3678   -4.4017    3.2631 H         1 <0>         0.0991
     49 H23         0.5971   -4.3815    3.4466 H         1 <0>         0.0916
     50 H24         0.1128   -7.8393    2.0760 H         1 <0>         0.1068
     51 H25        -0.7417   -6.5053    2.8938 H         1 <0>         0.1174
     52 H26         1.5210   -7.7360    4.2402 H         1 <0>         0.3855
@<TRIPOS>BOND
     1    1    6 ar
     2    1    2 ar
     3    1   28 1
     4    2    3 ar
     5    2   27 1
     6    3    4 ar
     7    3   29 1
     8    4    5 ar
     9    4   26 1
    10    5    6 ar
    11    5   15 1
    12    6    7 1
    13    7    8 1
    14    8    9 1
    15    8   30 1
    16    8   31 1
    17    9   14 1
    18    9   10 1
    19    9   32 1
    20   10   11 1
    21   10   33 1
    22   10   34 1
    23   11   12 1
    24   11   35 1
    25   11   36 1
    26   12   13 1
    27   12   37 1
    28   12   38 1
    29   13   14 1
    30   13   39 1
    31   13   40 1
    32   14   41 1
    33   14   42 1
    34   15   16 1
    35   15   43 1
    36   15   44 1
    37   16   17 1
    38   16   45 1
    39   16   46 1
    40   17   24 1
    41   17   18 1
    42   17   47 1
    43   18   19 1
    44   18   48 1
    45   18   49 1
    46   19   20 1
    47   19   21 1
    48   19   25 1
    49   21   22 1
    50   21   50 1
    51   21   51 1
    52   22   23 2
    53   22   24 1
    54   25   52 1
@<TRIPOS>MOLECULE
CHEMBL47537
   43    45     0     0     0
SMALL
USER_CHARGES

@<TRIPOS>ATOM
      1 C1         -0.0116    1.3852    0.0709 C.ar      1 <0>        -0.1163
      2 C2          0.4457    0.7288    1.1987 C.ar      1 <0>        -0.1032
      3 C3          1.6498    0.0527    1.1652 C.ar      1 <0>        -0.1374
      4 C4          2.4004    0.0323   -0.0016 C.ar      1 <0>         0.0773
      5 C5          1.9390    0.6914   -1.1321 C.ar      1 <0>        -0.1171
      6 C6          0.7344    1.3664   -1.0931 C.ar      1 <0>        -0.1023
      7 O1          3.5855   -0.6317   -0.0370 O.3       1 <0>        -0.2388
      8 C7          3.5607   -1.9868    0.0606 C.ar      1 <0>         0.1528
      9 C8          2.3479   -2.6611    0.0618 C.ar      1 <0>        -0.1822
     10 C9          2.3248   -4.0398    0.1607 C.ar      1 <0>         0.0099
     11 C10         3.5101   -4.7473    0.2588 C.ar      1 <0>        -0.1317
     12 C11         4.7203   -4.0768    0.2582 C.ar      1 <0>         0.0099
     13 C12         4.7479   -2.6983    0.1533 C.ar      1 <0>        -0.0949
     14 C13         6.0666   -1.9689    0.1459 C.3       1 <0>        -0.0790
     15 C14         6.4632   -1.6177    1.5812 C.3       1 <0>        -0.1066
     16 C15         7.8021   -0.8772    1.5737 C.3       1 <0>         0.1114
     17 C16         8.2582   -0.6310    3.0143 C.3       1 <0>        -0.1537
     18 C17         9.5780    0.1468    3.0032 C.3       1 <0>         0.1045
     19 H1          9.8995    0.3352    4.0275 H         1 <0>         0.0798
     20 C18         9.3610    1.4816    2.2790 C.3       1 <0>        -0.2050
     21 C19         8.7236    1.1955    0.9369 C.2       1 <0>         0.4960
     22 O2          9.1636    1.6838   -0.0768 O.2       1 <0>        -0.4530
     23 O3          7.6495    0.3798    0.9048 O.3       1 <0>        -0.3650
     24 O4         10.5764   -0.6142    2.3204 O.3       1 <0>        -0.5634
     25 Cl1         6.2054   -4.9673    0.3820 Cl        1 <0>        -0.0395
     26 Cl2         0.8080   -4.8840    0.1623 Cl        1 <0>        -0.0484
     27 H2         -0.9553    1.9097    0.0979 H         1 <0>         0.1302
     28 H3         -0.1390    0.7450    2.1066 H         1 <0>         0.1317
     29 H4          2.0069   -0.4592    2.0466 H         1 <0>         0.1303
     30 H5          2.5215    0.6774   -2.0414 H         1 <0>         0.1345
     31 H6          0.3750    1.8799   -1.9727 H         1 <0>         0.1337
     32 H7          1.4227   -2.1092   -0.0141 H         1 <0>         0.1471
     33 H8          3.4904   -5.8244    0.3363 H         1 <0>         0.1484
     34 H9          6.8319   -2.6064   -0.2969 H         1 <0>         0.0834
     35 H10         5.9726   -1.0541   -0.4393 H         1 <0>         0.0937
     36 H11         5.6979   -0.9802    2.0240 H         1 <0>         0.0797
     37 H12         6.5573   -2.5324    2.1664 H         1 <0>         0.0886
     38 H13         8.5475   -1.4783    1.0531 H         1 <0>         0.0875
     39 H14         7.4997   -0.0529    3.5421 H         1 <0>         0.0961
     40 H15         8.4034   -1.5866    3.5181 H         1 <0>         0.0987
     41 H16         8.7024    2.1177    2.8705 H         1 <0>         0.1181
     42 H17        10.3192    1.9799    2.1320 H         1 <0>         0.1076
     43 H18        11.4395   -0.1804    2.2758 H         1 <0>         0.3864
@<TRIPOS>BOND
     1    1    6 ar
     2    1    2 ar
     3    1   27 1
     4    2    3 ar
     5    2   28 1
     6    3    4 ar
     7    3   29 1
     8    4    5 ar
     9    4    7 1
    10    5    6 ar
    11    5   30 1
    12    6   31 1
    13    7    8 1
    14    8   13 ar
    15    8    9 ar
    16    9   10 ar
    17    9   32 1
    18   10   11 ar
    19   10   26 1
    20   11   12 ar
    21   11   33 1
    22   12   13 ar
    23   12   25 1
    24   13   14 1
    25   14   15 1
    26   14   34 1
    27   14   35 1
    28   15   16 1
    29   15   36 1
    30   15   37 1
    31   16   23 1
    32   16   17 1
    33   16   38 1
    34   17   18 1
    35   17   39 1
    36   17   40 1
    37   18   19 1
    38   18   20 1
    39   18   24 1
    40   20   21 1
    41   20   41 1
    42   20   42 1
    43   21   22 2
    44   21   23 1
    45   24   43 1
@<TRIPOS>MOLECULE
CHEMBL47537__1
   43    45     0     0     0
SMALL
USER_CHARGES

@<TRIPOS>ATOM
      1 C1         -0.0116    1.3852    0.0709 C.ar      1 <0>        -0.1155
      2 C2          0.4457    0.7288    1.1987 C.ar      1 <0>        -0.1027
      3 C3          1.6498    0.0527    1.1652 C.ar      1 <0>        -0.1369
      4 C4          2.4004    0.0323   -0.0016 C.ar      1 <0>         0.0758
      5 C5          1.9390    0.6914   -1.1321 C.ar      1 <0>        -0.1174
      6 C6          0.7344    1.3664   -1.0931 C.ar      1 <0>        -0.1025
      7 O1          3.5855   -0.6317   -0.0370 O.3       1 <0>        -0.2428
      8 C7          3.5607   -1.9868    0.0606 C.ar      1 <0>         0.1505
      9 C8          2.3479   -2.6611    0.0618 C.ar      1 <0>        -0.1820
     10 C9          2.3248   -4.0398    0.1607 C.ar      1 <0>         0.0102
     11 C10         3.5101   -4.7473    0.2588 C.ar      1 <0>        -0.1314
     12 C11         4.7203   -4.0768    0.2582 C.ar      1 <0>         0.0107
     13 C12         4.7479   -2.6983    0.1533 C.ar      1 <0>        -0.0953
     14 C13         6.0666   -1.9689    0.1459 C.3       1 <0>        -0.0797
     15 C14         6.4632   -1.6177    1.5812 C.3       1 <0>        -0.1053
     16 C15         7.8021   -0.8772    1.5737 C.3       1 <0>         0.1111
     17 C16         8.1415   -0.4203    2.9950 C.3       1 <0>        -0.1554
     18 C17         9.5019    0.2842    2.9906 C.3       1 <0>         0.1090
     19 H1          9.4606    1.1540    2.3349 H         1 <0>         0.0677
     20 C18        10.5660   -0.6951    2.4788 C.3       1 <0>        -0.2048
     21 C19        10.0885   -1.2700    1.1632 C.2       1 <0>         0.4920
     22 O2         10.8128   -1.2951    0.1965 O.2       1 <0>        -0.4480
     23 O3          8.8307   -1.7539    1.1006 O.3       1 <0>        -0.3627
     24 O4          9.8297    0.7005    4.3177 O.3       1 <0>        -0.5556
     25 Cl1         6.2054   -4.9673    0.3820 Cl        1 <0>        -0.0342
     26 Cl2         0.8080   -4.8840    0.1623 Cl        1 <0>        -0.0480
     27 H2         -0.9553    1.9097    0.0979 H         1 <0>         0.1305
     28 H3         -0.1390    0.7450    2.1066 H         1 <0>         0.1321
     29 H4          2.0069   -0.4592    2.0466 H         1 <0>         0.1309
     30 H5          2.5215    0.6774   -2.0414 H         1 <0>         0.1343
     31 H6          0.3750    1.8799   -1.9727 H         1 <0>         0.1338
     32 H7          1.4227   -2.1092   -0.0141 H         1 <0>         0.1471
     33 H8          3.4904   -5.8244    0.3363 H         1 <0>         0.1486
     34 H9          6.8319   -2.6064   -0.2969 H         1 <0>         0.0931
     35 H10         5.9726   -1.0541   -0.4393 H         1 <0>         0.0854
     36 H11         5.6979   -0.9802    2.0240 H         1 <0>         0.0913
     37 H12         6.5573   -2.5324    2.1664 H         1 <0>         0.0823
     38 H13         7.7341   -0.0089    0.9182 H         1 <0>         0.0826
     39 H14         7.3755    0.2703    3.3477 H         1 <0>         0.0990
     40 H15         8.1827   -1.2865    3.6553 H         1 <0>         0.0919
     41 H16        11.5085   -0.1684    2.3291 H         1 <0>         0.1071
     42 H17        10.7043   -1.4985    3.2023 H         1 <0>         0.1179
     43 H18        10.6805    1.1547    4.3886 H         1 <0>         0.3856
@<TRIPOS>BOND
     1    1    6 ar
     2    1    2 ar
     3    1   27 1
     4    2    3 ar
     5    2   28 1
     6    3    4 ar
     7    3   29 1
     8    4    5 ar
     9    4    7 1
    10    5    6 ar
    11    5   30 1
    12    6   31 1
    13    7    8 1
    14    8   13 ar
    15    8    9 ar
    16    9   10 ar
    17    9   32 1
    18   10   11 ar
    19   10   26 1
    20   11   12 ar
    21   11   33 1
    22   12   13 ar
    23   12   25 1
    24   13   14 1
    25   14   15 1
    26   14   34 1
    27   14   35 1
    28   15   16 1
    29   15   36 1
    30   15   37 1
    31   16   23 1
    32   16   17 1
    33   16   38 1
    34   17   18 1
    35   17   39 1
    36   17   40 1
    37   18   19 1
    38   18   20 1
    39   18   24 1
    40   20   21 1
    41   20   41 1
    42   20   42 1
    43   21   22 2
    44   21   23 1
    45   24   43 1
@<TRIPOS>MOLECULE
CHEMBL466326
   63    65     0     0     0
SMALL
USER_CHARGES

@<TRIPOS>ATOM
      1 C1         -0.0217    1.5519    0.0217 C.3       1 <0>        -0.1398
      2 C2          0.0091    0.0222    0.0167 C.3       1 <0>        -0.0459
      3 C3          0.7468   -0.4771    1.2606 C.3       1 <0>        -0.1401
      4 C4         -1.4013   -0.5087    0.0221 C.ar      1 <0>         0.2376
      5 C5         -1.8556   -1.3236   -1.0190 C.ar      1 <0>        -0.1813
      6 C6         -3.1839   -1.7934   -0.9651 C.ar      1 <0>         0.2679
      7 N1         -3.9457   -1.4441    0.0679 N.ar      1 <0>        -0.5500
      8 C7         -3.4688   -0.6699    1.0293 C.ar      1 <0>         0.5703
      9 N2         -2.2235   -0.2147    1.0136 N.ar      1 <0>        -0.5447
     10 N3         -4.2949   -0.3288    2.0885 N.pl3     1 <0>        -0.5174
     11 C8         -3.7901    0.5271    3.1650 C.3       1 <0>         0.1127
     12 C9         -5.5984   -0.7973    2.1293 C.2       1 <0>         0.5172
     13 N4         -6.0161   -1.8707    2.7648 N.2       1 <0>        -0.5271
     14 C10        -7.3294   -2.0163    2.5864 C.2       1 <0>         0.2079
     15 N5         -7.7698   -1.0416    1.8368 N.2       1 <0>        -0.3043
     16 N6         -6.6659   -0.2300    1.5288 N.pl3     1 <0>        -0.3685
     17 C11        -6.6714    0.9882    0.7151 C.3       1 <0>         0.0988
     18 C12        -3.7213   -2.6596   -2.0392 C.ar      1 <0>        -0.0748
     19 C13        -3.3134   -2.4712   -3.3599 C.ar      1 <0>        -0.0480
     20 C14        -3.8164   -3.2808   -4.3567 C.ar      1 <0>        -0.1587
     21 C15        -4.7257   -4.2802   -4.0480 C.ar      1 <0>         0.1217
     22 C16        -5.1344   -4.4710   -2.7375 C.ar      1 <0>        -0.1634
     23 C17        -4.6327   -3.6703   -1.7329 C.ar      1 <0>        -0.0437
     24 F1         -5.2157   -5.0707   -5.0279 F         1 <0>        -0.1346
     25 C18        -0.9694   -1.6818   -2.1437 C.2       1 <0>        -0.1248
     26 C19        -0.8462   -2.9504   -2.5133 C.2       1 <0>        -0.1504
     27 C20         0.0585   -3.3161   -3.6617 C.3       1 <0>         0.1414
     28 H1         -0.5380   -3.7191   -4.4801 H         1 <0>         0.1108
     29 C21         1.0683   -4.3689   -3.2001 C.3       1 <0>        -0.1811
     30 C22         1.9050   -4.8313   -4.3947 C.3       1 <0>         0.1378
     31 H2          1.2439   -5.1814   -5.1875 H         1 <0>         0.0936
     32 C23         2.8281   -5.9714   -3.9600 C.3       1 <0>        -0.2194
     33 C24         3.5625   -6.5089   -5.1611 C.2       1 <0>         0.4906
     34 O1          3.3658   -6.0250   -6.2628 O.co2     1 <0>        -0.6811
     35 O2          4.3534   -7.4276   -5.0312 O.co2     1 <0>        -0.7128
     36 O3          2.6908   -3.7396   -4.8770 O.3       1 <0>        -0.5276
     37 O4          0.7554   -2.1514   -4.1087 O.3       1 <0>        -0.5369
     38 H3          0.9984    1.9359    0.0178 H         1 <0>         0.0654
     39 H4         -0.5473    1.9076   -0.8645 H         1 <0>         0.0537
     40 H5         -0.5383    1.9020    0.9154 H         1 <0>         0.0645
     41 H6          0.5257   -0.3278   -0.8771 H         1 <0>         0.0968
     42 H7          0.2303   -0.1271    2.1543 H         1 <0>         0.0645
     43 H8          0.7688   -1.5669    1.2570 H         1 <0>         0.0545
     44 H9          1.7669   -0.0931    1.2567 H         1 <0>         0.0655
     45 H10        -3.8971    1.5732    2.8779 H         1 <0>         0.0605
     46 H11        -4.3598    0.3400    4.0753 H         1 <0>         0.0766
     47 H12        -2.7379    0.3049    3.3427 H         1 <0>         0.0936
     48 H13        -7.9325   -2.8132    2.9958 H         1 <0>         0.2215
     49 H14        -6.5855    0.7219   -0.3383 H         1 <0>         0.0807
     50 H15        -7.6031    1.5299    0.8782 H         1 <0>         0.0941
     51 H16        -5.8295    1.6192    1.0001 H         1 <0>         0.0864
     52 H17        -2.6052   -1.6924   -3.6014 H         1 <0>         0.1462
     53 H18        -3.5015   -3.1355   -5.3795 H         1 <0>         0.1442
     54 H19        -5.8437   -5.2506   -2.5020 H         1 <0>         0.1391
     55 H20        -4.9481   -3.8228   -0.7113 H         1 <0>         0.1351
     56 H21        -0.4213   -0.9115   -2.6658 H         1 <0>         0.1369
     57 H22        -1.3943   -3.7207   -1.9912 H         1 <0>         0.1145
     58 H23         1.7231   -3.9370   -2.4433 H         1 <0>         0.0649
     59 H24         0.5367   -5.2213   -2.7771 H         1 <0>         0.0752
     60 H25         3.5476   -5.5984   -3.2311 H         1 <0>         0.0565
     61 H26         2.2351   -6.7678   -3.5103 H         1 <0>         0.0610
     62 H27         3.3036   -3.3769   -4.2228 H         1 <0>         0.3501
     63 H28         1.3077   -1.7390   -3.4305 H         1 <0>         0.3661
@<TRIPOS>BOND
     1    1    2 1
     2    1   38 1
     3    1   39 1
     4    1   40 1
     5    2    3 1
     6    2    4 1
     7    2   41 1
     8    3   42 1
     9    3   43 1
    10    3   44 1
    11    4    9 ar
    12    4    5 ar
    13    5    6 ar
    14    5   25 1
    15    6    7 ar
    16    6   18 1
    17    7    8 ar
    18    8    9 ar
    19    8   10 1
    20   10   11 1
    21   10   12 1
    22   11   45 1
    23   11   46 1
    24   11   47 1
    25   12   16 1
    26   12   13 2
    27   13   14 1
    28   14   15 2
    29   14   48 1
    30   15   16 1
    31   16   17 1
    32   17   49 1
    33   17   50 1
    34   17   51 1
    35   18   23 ar
    36   18   19 ar
    37   19   20 ar
    38   19   52 1
    39   20   21 ar
    40   20   53 1
    41   21   22 ar
    42   21   24 1
    43   22   23 ar
    44   22   54 1
    45   23   55 1
    46   25   26 2
    47   25   56 1
    48   26   27 1
    49   26   57 1
    50   27   28 1
    51   27   29 1
    52   27   37 1
    53   29   30 1
    54   29   58 1
    55   29   59 1
    56   30   31 1
    57   30   32 1
    58   30   36 1
    59   32   33 1
    60   32   60 1
    61   32   61 1
    62   33   34 2
    63   33   35 1
    64   36   62 1
    65   37   63 1
@<TRIPOS>MOLECULE
CHEMBL82467
   84    87     0     0     0
SMALL
USER_CHARGES

@<TRIPOS>ATOM
      1 C1          4.4731    1.7087   -2.4836 C.3       1 <0>        -0.1560
      2 C2          3.8094    0.3377   -2.3393 C.3       1 <0>        -0.1062
      3 C3          3.9674   -0.1564   -0.8999 C.3       1 <0>        -0.0520
      4 C4          5.4549   -0.2715   -0.5606 C.3       1 <0>        -0.1446
      5 C5          3.3016    0.8357    0.0558 C.3       1 <0>        -0.1443
      6 C6          3.3138   -1.5067   -0.7577 C.2       1 <0>         0.4685
      7 O1          2.7766   -2.0212   -1.7099 O.2       1 <0>        -0.5017
      8 O2          3.3283   -2.1380    0.4268 O.3       1 <0>        -0.3462
      9 C7          2.6867   -3.4207    0.4896 C.3       1 <0>         0.1021
     10 H1          1.8688   -3.4044   -0.2529 H         1 <0>         0.0848
     11 C8          3.6723   -4.5065    0.0941 C.3       1 <0>        -0.1571
     12 C9          4.5847   -4.9580    1.2276 C.3       1 <0>         0.1563
     13 O3          3.8534   -5.1465    2.4373 O.3       1 <0>        -0.3450
     14 C10         3.1288   -4.0105    2.8864 C.3       1 <0>         0.0990
     15 H2          3.8296   -3.1636    2.9976 H         1 <0>         0.0618
     16 C11         2.0723   -3.6081    1.8714 C.3       1 <0>        -0.0977
     17 C12         0.8675   -4.5305    1.8426 C.3       1 <0>        -0.0663
     18 H3          0.0845   -4.0593    1.2233 H         1 <0>         0.0668
     19 C13         0.2930   -4.7112    3.2501 C.3       1 <0>        -0.0794
     20 H4         -0.0612   -3.7480    3.6205 H         1 <0>         0.0668
     21 C14         1.3718   -5.2524    4.1868 C.3       1 <0>        -0.1806
     22 C15         2.5245   -4.2546    4.2660 C.3       1 <0>        -0.1093
     23 C16        -0.8786   -5.6947    3.1969 C.3       1 <0>        -0.1533
     24 C17         1.1762   -5.8985    1.2438 C.3       1 <0>        -0.1186
     25 C18         1.8774   -6.7669    2.2902 C.3       1 <0>        -0.1757
     26 C19         2.4457   -8.0178    1.6171 C.3       1 <0>         0.1047
     27 C20         3.3734   -8.7466    2.5928 C.3       1 <0>        -0.1570
     28 C21         3.9728   -9.9756    1.9017 C.3       1 <0>         0.1041
     29 H5          4.6440  -10.4901    2.5894 H         1 <0>         0.0791
     30 C22         4.7565   -9.5165    0.6656 C.3       1 <0>        -0.2242
     31 C23         3.8535   -8.6344   -0.1685 C.2       1 <0>         0.4877
     32 O4          3.7322   -8.8162   -1.3569 O.2       1 <0>        -0.4474
     33 O5          3.1880   -7.6387    0.4527 O.3       1 <0>        -0.3569
     34 O6          2.9235  -10.8608    1.5048 O.3       1 <0>        -0.5623
     35 C24         5.7184   -3.9520    1.4313 C.3       1 <0>        -0.1787
     36 C25         5.2114   -6.3098    0.8359 C.3       1 <0>        -0.1383
     37 S1          6.8805   -6.4281    1.5363 S.3       1 <0>        -0.1019
     38 C26         7.6287   -7.7442    0.6349 C.ar      1 <0>        -0.0999
     39 C27         6.9572   -8.3270   -0.4332 C.ar      1 <0>        -0.1417
     40 C28         7.5466   -9.3582   -1.1373 C.ar      1 <0>        -0.0999
     41 C29         8.8038   -9.8113   -0.7807 C.ar      1 <0>        -0.1232
     42 C30         9.4748   -9.2341    0.2820 C.ar      1 <0>        -0.1004
     43 C31         8.8942   -8.1983    0.9868 C.ar      1 <0>        -0.0983
     44 H6          5.5327    1.6267   -2.2419 H         1 <0>         0.0603
     45 H7          4.3605    2.0607   -3.5091 H         1 <0>         0.0602
     46 H8          3.9987    2.4155   -1.8027 H         1 <0>         0.0602
     47 H9          2.7497    0.4197   -2.5810 H         1 <0>         0.0710
     48 H10         4.2838   -0.3690   -3.0201 H         1 <0>         0.0709
     49 H11         5.9277    0.7052   -0.6634 H         1 <0>         0.0767
     50 H12         5.5674   -0.6235    0.4649 H         1 <0>         0.0695
     51 H13         5.9292   -0.9782   -1.2415 H         1 <0>         0.0602
     52 H14         2.2419    0.9177   -0.1859 H         1 <0>         0.0601
     53 H15         3.4142    0.4837    1.0813 H         1 <0>         0.0692
     54 H16         3.7744    1.8124   -0.0470 H         1 <0>         0.0765
     55 H17         3.1548   -5.3666   -0.3344 H         1 <0>         0.1051
     56 H18         4.3139   -4.1084   -0.7156 H         1 <0>         0.0721
     57 H19         1.6959   -2.6043    2.1876 H         1 <0>         0.0848
     58 H20         0.9428   -5.3819    5.1863 H         1 <0>         0.0584
     59 H21         1.7357   -6.2159    3.8395 H         1 <0>         0.1295
     60 H22         3.2958   -4.6447    4.9343 H         1 <0>         0.0754
     61 H23         2.1563   -3.3087    4.6709 H         1 <0>         0.0753
     62 H24        -0.5153   -6.6766    2.8936 H         1 <0>         0.0625
     63 H25        -1.3381   -5.7659    4.1828 H         1 <0>         0.0547
     64 H26        -1.6167   -5.3419    2.4766 H         1 <0>         0.0540
     65 H27         0.2471   -6.3787    0.9367 H         1 <0>         0.0609
     66 H28         1.8263   -5.7775    0.3773 H         1 <0>         0.0817
     67 H29         2.6884   -6.2004    2.7480 H         1 <0>         0.1553
     68 H30         1.1612   -7.0608    3.0575 H         1 <0>         0.0983
     69 H31         1.6285   -8.6788    1.3284 H         1 <0>         0.0793
     70 H32         4.1752   -8.0761    2.9019 H         1 <0>         0.1018
     71 H33         2.8053   -9.0624    3.4678 H         1 <0>         0.0994
     72 H34         5.6359   -8.9525    0.9766 H         1 <0>         0.1274
     73 H35         5.0635  -10.3844    0.0819 H         1 <0>         0.1077
     74 H36         3.2321  -11.6620    1.0599 H         1 <0>         0.3846
     75 H37         5.2989   -2.9772    1.6799 H         1 <0>         0.0724
     76 H38         6.3614   -4.2890    2.2444 H         1 <0>         0.0767
     77 H39         6.3031   -3.8730    0.5147 H         1 <0>         0.0715
     78 H40         4.5961   -7.1215    1.2239 H         1 <0>         0.1450
     79 H41         5.2671   -6.3833   -0.2502 H         1 <0>         0.0888
     80 H42         5.9753   -7.9739   -0.7120 H         1 <0>         0.1175
     81 H43         7.0252   -9.8118   -1.9672 H         1 <0>         0.1258
     82 H44         9.2624  -10.6180   -1.3332 H         1 <0>         0.1255
     83 H45        10.4562   -9.5907    0.5579 H         1 <0>         0.1282
     84 H46         9.4210   -7.7446    1.8132 H         1 <0>         0.1282
@<TRIPOS>BOND
     1    1    2 1
     2    1   44 1
     3    1   45 1
     4    1   46 1
     5    2    3 1
     6    2   47 1
     7    2   48 1
     8    3    4 1
     9    3    5 1
    10    3    6 1
    11    4   49 1
    12    4   50 1
    13    4   51 1
    14    5   52 1
    15    5   53 1
    16    5   54 1
    17    6    7 2
    18    6    8 1
    19    8    9 1
    20    9   10 1
    21    9   16 1
    22    9   11 1
    23   11   12 1
    24   11   55 1
    25   11   56 1
    26   12   13 1
    27   12   35 1
    28   12   36 1
    29   13   14 1
    30   14   15 1
    31   14   22 1
    32   14   16 1
    33   16   17 1
    34   16   57 1
    35   17   18 1
    36   17   19 1
    37   17   24 1
    38   19   20 1
    39   19   21 1
    40   19   23 1
    41   21   22 1
    42   21   58 1
    43   21   59 1
    44   22   60 1
    45   22   61 1
    46   23   62 1
    47   23   63 1
    48   23   64 1
    49   24   25 1
    50   24   65 1
    51   24   66 1
    52   25   26 1
    53   25   67 1
    54   25   68 1
    55   26   33 1
    56   26   27 1
    57   26   69 1
    58   27   28 1
    59   27   70 1
    60   27   71 1
    61   28   29 1
    62   28   30 1
    63   28   34 1
    64   30   31 1
    65   30   72 1
    66   30   73 1
    67   31   32 2
    68   31   33 1
    69   34   74 1
    70   35   75 1
    71   35   76 1
    72   35   77 1
    73   36   37 1
    74   36   78 1
    75   36   79 1
    76   37   38 1
    77   38   43 ar
    78   38   39 ar
    79   39   40 ar
    80   39   80 1
    81   40   41 ar
    82   40   81 1
    83   41   42 ar
    84   41   82 1
    85   42   43 ar
    86   42   83 1
    87   43   84 1
@<TRIPOS>MOLECULE
CHEMBL82467__1
   84    87     0     0     0
SMALL
USER_CHARGES

@<TRIPOS>ATOM
      1 C1          4.9628    0.7307   -2.8991 C.3       1 <0>        -0.1563
      2 C2          4.2720   -0.6325   -2.8252 C.3       1 <0>        -0.1062
      3 C3          4.1311   -1.0541   -1.3612 C.3       1 <0>        -0.0518
      4 C4          5.5180   -1.1498   -0.7223 C.3       1 <0>        -0.1449
      5 C5          3.2941   -0.0168   -0.6100 C.3       1 <0>        -0.1448
      6 C6          3.4507   -2.3968   -1.2884 C.2       1 <0>         0.4690
      7 O1          3.1131   -2.9588   -2.3033 O.2       1 <0>        -0.5013
      8 O2          3.2197   -2.9683   -0.0960 O.3       1 <0>        -0.3452
      9 C7          2.5678   -4.2473   -0.1017 C.3       1 <0>         0.1011
     10 H1          1.9174   -4.2692   -0.9944 H         1 <0>         0.0877
     11 C8          3.6037   -5.3498   -0.2356 C.3       1 <0>        -0.1599
     12 C9          4.2639   -5.7429    1.0800 C.3       1 <0>         0.1508
     13 O3          3.3013   -5.8723    2.1242 O.3       1 <0>        -0.3522
     14 C10         2.5104   -4.7165    2.3609 C.3       1 <0>         0.0983
     15 H2          3.1815   -3.8640    2.5702 H         1 <0>         0.0655
     16 C11         1.6848   -4.3667    1.1344 C.3       1 <0>        -0.0997
     17 C12         0.5030   -5.2913    0.9074 C.3       1 <0>        -0.0682
     18 H3         -0.1344   -4.8528    0.1199 H         1 <0>         0.0699
     19 C13        -0.3461   -5.4027    2.1763 C.3       1 <0>        -0.0784
     20 H4         -0.7597   -4.4228    2.4196 H         1 <0>         0.0682
     21 C14         0.5160   -5.8949    3.3376 C.3       1 <0>        -0.1802
     22 C15         1.6373   -4.8926    3.5998 C.3       1 <0>        -0.1120
     23 C16        -1.4910   -6.3894    1.9352 C.3       1 <0>        -0.1556
     24 C17         0.9148   -6.6869    0.4513 C.3       1 <0>        -0.1176
     25 C18         1.4208   -7.4875    1.6529 C.3       1 <0>        -0.1597
     26 C19         2.3288   -8.6187    1.1662 C.3       1 <0>         0.0994
     27 C20         3.0234   -9.2687    2.3658 C.3       1 <0>        -0.1624
     28 C21         3.8995  -10.4273    1.8788 C.3       1 <0>         0.0779
     29 H5          4.6543  -10.0495    1.1892 H         1 <0>         0.0850
     30 C22         3.0125  -11.4514    1.1592 C.3       1 <0>        -0.2069
     31 C23         2.1982  -10.7221    0.1130 C.2       1 <0>         0.4870
     32 O4          2.1365  -11.1304   -1.0224 O.2       1 <0>        -0.4501
     33 O5          1.5431   -9.6028    0.4846 O.3       1 <0>        -0.3639
     34 O6          4.5393  -11.0463    2.9967 O.3       1 <0>        -0.5463
     35 C24         5.3415   -4.7264    1.4596 C.3       1 <0>        -0.1886
     36 C25         4.9453   -7.1116    0.8901 C.3       1 <0>        -0.1388
     37 S1          6.6541   -7.0251    1.4928 S.3       1 <0>        -0.0738
     38 C26         7.2883   -8.6445    1.2102 C.ar      1 <0>        -0.0958
     39 C27         6.4812   -9.6178    0.6333 C.ar      1 <0>        -0.1446
     40 C28         6.9816  -10.8858    0.4134 C.ar      1 <0>        -0.1052
     41 C29         8.2842  -11.1878    0.7663 C.ar      1 <0>        -0.1222
     42 C30         9.0902  -10.2219    1.3410 C.ar      1 <0>        -0.0971
     43 C31         8.5986   -8.9500    1.5583 C.ar      1 <0>        -0.0971
     44 H6          5.9509    0.6625   -2.4439 H         1 <0>         0.0605
     45 H7          5.0632    1.0311   -3.9421 H         1 <0>         0.0604
     46 H8          4.3665    1.4697   -2.3639 H         1 <0>         0.0603
     47 H9          3.2840   -0.5642   -3.2803 H         1 <0>         0.0711
     48 H10         4.8683   -1.3715   -3.3603 H         1 <0>         0.0711
     49 H11         6.0102   -0.1787   -0.7749 H         1 <0>         0.0771
     50 H12         5.4177   -1.4502    0.3207 H         1 <0>         0.0695
     51 H13         6.1144   -1.8888   -1.2574 H         1 <0>         0.0607
     52 H14         2.3060    0.0515   -1.0652 H         1 <0>         0.0603
     53 H15         3.1937   -0.3171    0.4330 H         1 <0>         0.0694
     54 H16         3.7862    0.9544   -0.6627 H         1 <0>         0.0769
     55 H17         3.1764   -6.2310   -0.7174 H         1 <0>         0.0931
     56 H18         4.3994   -4.9916   -0.9169 H         1 <0>         0.0806
     57 H19         1.2608   -3.3491    1.3182 H         1 <0>         0.0887
     58 H20        -0.1075   -5.9753    4.2345 H         1 <0>         0.0610
     59 H21         0.9345   -6.8740    3.1190 H         1 <0>         0.1264
     60 H22         2.2539   -5.2478    4.4288 H         1 <0>         0.0773
     61 H23         1.2028   -3.9283    3.8748 H         1 <0>         0.0788
     62 H24        -1.0833   -7.3466    1.6101 H         1 <0>         0.0655
     63 H25        -2.0516   -6.5285    2.8596 H         1 <0>         0.0554
     64 H26        -2.1535   -5.9960    1.1642 H         1 <0>         0.0536
     65 H27         0.0555   -7.1941    0.0126 H         1 <0>         0.0711
     66 H28         1.7079   -6.6069   -0.2921 H         1 <0>         0.0671
     67 H29         1.9829   -6.8305    2.3166 H         1 <0>         0.1676
     68 H30         0.5724   -7.9091    2.1920 H         1 <0>         0.0834
     69 H31         3.0786   -8.2161    0.4851 H         1 <0>         0.0746
     70 H32         3.6455   -8.5294    2.8703 H         1 <0>         0.1057
     71 H33         2.2726   -9.6471    3.0596 H         1 <0>         0.0936
     72 H34         3.6367  -12.2052    0.6793 H         1 <0>         0.1049
     73 H35         2.3455  -11.9286    1.8771 H         1 <0>         0.1179
     74 H36         5.1109  -11.7897    2.7606 H         1 <0>         0.3810
     75 H37         4.8886   -3.7410    1.5700 H         1 <0>         0.0801
     76 H38         5.8036   -5.0214    2.4017 H         1 <0>         0.0821
     77 H39         6.1002   -4.6921    0.6778 H         1 <0>         0.0795
     78 H40         4.3999   -7.8700    1.4518 H         1 <0>         0.1184
     79 H41         4.9461   -7.3734   -0.1679 H         1 <0>         0.0944
     80 H42         5.4637   -9.3827    0.3578 H         1 <0>         0.1230
     81 H43         6.3548  -11.6427   -0.0345 H         1 <0>         0.1229
     82 H44         8.6729  -12.1804    0.5931 H         1 <0>         0.1259
     83 H45        10.1069  -10.4614    1.6157 H         1 <0>         0.1285
     84 H46         9.2301   -8.1948    2.0023 H         1 <0>         0.1278
@<TRIPOS>BOND
     1    1    2 1
     2    1   44 1
     3    1   45 1
     4    1   46 1
     5    2    3 1
     6    2   47 1
     7    2   48 1
     8    3    4 1
     9    3    5 1
    10    3    6 1
    11    4   49 1
    12    4   50 1
    13    4   51 1
    14    5   52 1
    15    5   53 1
    16    5   54 1
    17    6    7 2
    18    6    8 1
    19    8    9 1
    20    9   10 1
    21    9   16 1
    22    9   11 1
    23   11   12 1
    24   11   55 1
    25   11   56 1
    26   12   13 1
    27   12   35 1
    28   12   36 1
    29   13   14 1
    30   14   15 1
    31   14   22 1
    32   14   16 1
    33   16   17 1
    34   16   57 1
    35   17   18 1
    36   17   19 1
    37   17   24 1
    38   19   20 1
    39   19   21 1
    40   19   23 1
    41   21   22 1
    42   21   58 1
    43   21   59 1
    44   22   60 1
    45   22   61 1
    46   23   62 1
    47   23   63 1
    48   23   64 1
    49   24   25 1
    50   24   65 1
    51   24   66 1
    52   25   26 1
    53   25   67 1
    54   25   68 1
    55   26   33 1
    56   26   27 1
    57   26   69 1
    58   27   28 1
    59   27   70 1
    60   27   71 1
    61   28   29 1
    62   28   30 1
    63   28   34 1
    64   30   31 1
    65   30   72 1
    66   30   73 1
    67   31   32 2
    68   31   33 1
    69   34   74 1
    70   35   75 1
    71   35   76 1
    72   35   77 1
    73   36   37 1
    74   36   78 1
    75   36   79 1
    76   37   38 1
    77   38   43 ar
    78   38   39 ar
    79   39   40 ar
    80   39   80 1
    81   40   41 ar
    82   40   81 1
    83   41   42 ar
    84   41   82 1
    85   42   43 ar
    86   42   83 1
    87   43   84 1
@<TRIPOS>MOLECULE
CHEMBL82467__2
   84    87     0     0     0
SMALL
USER_CHARGES

@<TRIPOS>ATOM
      1 C1          0.6877    1.5316   -0.9156 C.3       1 <0>        -0.1561
      2 C2          0.6879    0.0017   -0.8989 C.3       1 <0>        -0.1057
      3 C3          1.1065   -0.4931    0.4870 C.3       1 <0>        -0.0519
      4 C4          2.5112    0.0206    0.8093 C.3       1 <0>        -0.1485
      5 C5          0.1202    0.0282    1.5341 C.3       1 <0>        -0.1443
      6 C6          1.1067   -2.0000    0.5035 C.2       1 <0>         0.4659
      7 O1          0.8032   -2.6151   -0.4912 O.2       1 <0>        -0.5018
      8 O2          1.4441   -2.6590    1.6232 O.3       1 <0>        -0.3318
      9 C7          1.4225   -4.0867    1.5672 C.3       1 <0>         0.0904
     10 H1          0.6679   -4.4128    0.8514 H         1 <0>         0.0938
     11 C8          2.7984   -4.6043    1.1343 C.3       1 <0>        -0.1579
     12 C9          3.8400   -4.2131    2.1853 C.3       1 <0>         0.1427
     13 O3          3.4552   -4.7349    3.4596 O.3       1 <0>        -0.3582
     14 C10         2.2009   -4.2418    3.9312 C.3       1 <0>         0.0973
     15 H2          2.2414   -3.1548    3.9999 H         1 <0>         0.0714
     16 C11         1.0928   -4.6494    2.9520 C.3       1 <0>        -0.1066
     17 C12        -0.2458   -4.0905    3.4360 C.3       1 <0>        -0.0713
     18 H3         -0.1855   -3.0039    3.4977 H         1 <0>         0.0792
     19 C13        -0.5622   -4.6642    4.8193 C.3       1 <0>        -0.0869
     20 H4         -1.5150   -4.2659    5.1680 H         1 <0>         0.0755
     21 C14         0.5430   -4.2746    5.8024 C.3       1 <0>        -0.1112
     22 C15         1.8914   -4.8274    5.3095 C.3       1 <0>        -0.1127
     23 C16        -0.6495   -6.1891    4.7305 C.3       1 <0>        -0.1575
     24 C17        -1.3497   -4.4859    2.4532 C.3       1 <0>        -0.1221
     25 C18        -2.6645   -3.8235    2.8697 C.3       1 <0>        -0.1134
     26 C19        -3.7685   -4.2190    1.8870 C.3       1 <0>         0.1096
     27 C20        -5.0546   -3.4634    2.2319 C.3       1 <0>        -0.1532
     28 C21        -6.1688   -3.8927    1.2720 C.3       1 <0>         0.1039
     29 H5         -7.0897   -3.3662    1.5226 H         1 <0>         0.0795
     30 C22        -6.3873   -5.4047    1.4103 C.3       1 <0>        -0.2048
     31 C23        -5.0489   -6.0938    1.2577 C.2       1 <0>         0.4957
     32 O4         -4.9158   -7.0348    0.5116 O.2       1 <0>        -0.4529
     33 O5         -4.0086   -5.6276    1.9792 O.3       1 <0>        -0.3665
     34 O6         -5.7900   -3.5821   -0.0704 O.3       1 <0>        -0.5634
     35 C24         3.9339   -2.6881    2.2665 C.3       1 <0>        -0.1882
     36 C25         5.2025   -4.7864    1.7904 C.3       1 <0>        -0.0994
     37 S1          6.4651   -4.2012    2.9540 S.3       1 <0>        -0.0818
     38 C26         7.9558   -4.9383    2.3717 C.ar      1 <0>        -0.0905
     39 C27         7.9371   -5.7503    1.2440 C.ar      1 <0>        -0.1366
     40 C28         9.1073   -6.3262    0.7905 C.ar      1 <0>        -0.1000
     41 C29        10.2969   -6.0959    1.4571 C.ar      1 <0>        -0.1273
     42 C30        10.3193   -5.2887    2.5799 C.ar      1 <0>        -0.1002
     43 C31         9.1541   -4.7044    3.0356 C.ar      1 <0>        -0.1019
     44 H6          1.6885    1.8976   -0.6860 H         1 <0>         0.0602
     45 H7          0.3896    1.8842   -1.9029 H         1 <0>         0.0598
     46 H8         -0.0149    1.9030   -0.1696 H         1 <0>         0.0601
     47 H9         -0.3128   -0.3643   -1.1284 H         1 <0>         0.0709
     48 H10         1.3906   -0.3697   -1.6448 H         1 <0>         0.0703
     49 H11         2.5111    1.1105    0.7974 H         1 <0>         0.0765
     50 H12         2.8094   -0.3320    1.7966 H         1 <0>         0.0719
     51 H13         3.2139   -0.3508    0.0633 H         1 <0>         0.0602
     52 H14        -0.8805   -0.3378    1.3045 H         1 <0>         0.0603
     53 H15         0.4184   -0.3244    2.5214 H         1 <0>         0.0692
     54 H16         0.1200    1.1181    1.5222 H         1 <0>         0.0761
     55 H17         2.7659   -5.6898    1.0409 H         1 <0>         0.0898
     56 H18         3.0672   -4.1640    0.1741 H         1 <0>         0.0811
     57 H19         1.0367   -5.7366    2.8990 H         1 <0>         0.1003
     58 H20         0.5997   -3.1883    5.8727 H         1 <0>         0.0643
     59 H21         0.3178   -4.6899    6.7847 H         1 <0>         0.0700
     60 H22         1.8359   -5.9137    5.2392 H         1 <0>         0.0737
     61 H23         2.6790   -4.5472    6.0090 H         1 <0>         0.0720
     62 H24         0.3027   -6.5878    4.3806 H         1 <0>         0.0595
     63 H25        -0.8749   -6.5981    5.7154 H         1 <0>         0.0539
     64 H26        -1.4387   -6.4678    4.0321 H         1 <0>         0.0616
     65 H27        -1.0786   -4.1563    1.4503 H         1 <0>         0.0608
     66 H28        -1.4707   -5.5692    2.4594 H         1 <0>         0.0790
     67 H29        -2.9357   -4.1532    3.8727 H         1 <0>         0.0807
     68 H30        -2.5435   -2.7403    2.8636 H         1 <0>         0.0846
     69 H31        -3.4594   -3.9681    0.8723 H         1 <0>         0.0833
     70 H32        -5.3482   -3.6938    3.2561 H         1 <0>         0.0959
     71 H33        -4.8838   -2.3913    2.1346 H         1 <0>         0.0972
     72 H34        -6.8054   -5.6273    2.3920 H         1 <0>         0.1183
     73 H35        -7.0691   -5.7501    0.6331 H         1 <0>         0.1075
     74 H36        -6.4509   -3.8276   -0.7324 H         1 <0>         0.3864
     75 H37         3.0138   -2.2898    2.6943 H         1 <0>         0.0925
     76 H38         4.7782   -2.4091    2.8969 H         1 <0>         0.0716
     77 H39         4.0764   -2.2791    1.2663 H         1 <0>         0.0628
     78 H40         5.1601   -5.8753    1.8175 H         1 <0>         0.0950
     79 H41         5.4568   -4.4577    0.7827 H         1 <0>         0.0982
     80 H42         7.0084   -5.9309    0.7232 H         1 <0>         0.1200
     81 H43         9.0934   -6.9577   -0.0855 H         1 <0>         0.1245
     82 H44        11.2107   -6.5476    1.1002 H         1 <0>         0.1246
     83 H45        11.2501   -5.1113    3.0982 H         1 <0>         0.1277
     84 H46         9.1732   -4.0700    3.9094 H         1 <0>         0.1271
@<TRIPOS>BOND
     1    1    2 1
     2    1   44 1
     3    1   45 1
     4    1   46 1
     5    2    3 1
     6    2   47 1
     7    2   48 1
     8    3    4 1
     9    3    5 1
    10    3    6 1
    11    4   49 1
    12    4   50 1
    13    4   51 1
    14    5   52 1
    15    5   53 1
    16    5   54 1
    17    6    7 2
    18    6    8 1
    19    8    9 1
    20    9   10 1
    21    9   16 1
    22    9   11 1
    23   11   12 1
    24   11   55 1
    25   11   56 1
    26   12   13 1
    27   12   35 1
    28   12   36 1
    29   13   14 1
    30   14   15 1
    31   14   22 1
    32   14   16 1
    33   16   17 1
    34   16   57 1
    35   17   18 1
    36   17   19 1
    37   17   24 1
    38   19   20 1
    39   19   21 1
    40   19   23 1
    41   21   22 1
    42   21   58 1
    43   21   59 1
    44   22   60 1
    45   22   61 1
    46   23   62 1
    47   23   63 1
    48   23   64 1
    49   24   25 1
    50   24   65 1
    51   24   66 1
    52   25   26 1
    53   25   67 1
    54   25   68 1
    55   26   33 1
    56   26   27 1
    57   26   69 1
    58   27   28 1
    59   27   70 1
    60   27   71 1
    61   28   29 1
    62   28   30 1
    63   28   34 1
    64   30   31 1
    65   30   72 1
    66   30   73 1
    67   31   32 2
    68   31   33 1
    69   34   74 1
    70   35   75 1
    71   35   76 1
    72   35   77 1
    73   36   37 1
    74   36   78 1
    75   36   79 1
    76   37   38 1
    77   38   43 ar
    78   38   39 ar
    79   39   40 ar
    80   39   80 1
    81   40   41 ar
    82   40   81 1
    83   41   42 ar
    84   41   82 1
    85   42   43 ar
    86   42   83 1
    87   43   84 1
@<TRIPOS>MOLECULE
CHEMBL82467__3
   84    87     0     0     0
SMALL
USER_CHARGES

@<TRIPOS>ATOM
      1 C1          0.6877    1.5316   -0.9156 C.3       1 <0>        -0.1557
      2 C2          0.6879    0.0017   -0.8989 C.3       1 <0>        -0.1058
      3 C3          1.1065   -0.4931    0.4870 C.3       1 <0>        -0.0511
      4 C4          2.5112    0.0206    0.8093 C.3       1 <0>        -0.1482
      5 C5          0.1202    0.0282    1.5341 C.3       1 <0>        -0.1438
      6 C6          1.1067   -2.0000    0.5035 C.2       1 <0>         0.4659
      7 O1          0.8032   -2.6151   -0.4912 O.2       1 <0>        -0.4982
      8 O2          1.4441   -2.6590    1.6232 O.3       1 <0>        -0.3326
      9 C7          1.4225   -4.0867    1.5672 C.3       1 <0>         0.0903
     10 H1          0.6679   -4.4128    0.8514 H         1 <0>         0.0944
     11 C8          2.7984   -4.6043    1.1343 C.3       1 <0>        -0.1578
     12 C9          3.8400   -4.2131    2.1853 C.3       1 <0>         0.1429
     13 O3          3.4552   -4.7349    3.4596 O.3       1 <0>        -0.3584
     14 C10         2.2009   -4.2418    3.9312 C.3       1 <0>         0.0969
     15 H2          2.2414   -3.1548    3.9999 H         1 <0>         0.0717
     16 C11         1.0928   -4.6494    2.9520 C.3       1 <0>        -0.1060
     17 C12        -0.2458   -4.0905    3.4360 C.3       1 <0>        -0.0720
     18 H3         -0.1855   -3.0039    3.4977 H         1 <0>         0.0809
     19 C13        -0.5622   -4.6642    4.8193 C.3       1 <0>        -0.0886
     20 H4         -1.5150   -4.2659    5.1680 H         1 <0>         0.0760
     21 C14         0.5430   -4.2746    5.8024 C.3       1 <0>        -0.1113
     22 C15         1.8914   -4.8274    5.3095 C.3       1 <0>        -0.1126
     23 C16        -0.6495   -6.1891    4.7305 C.3       1 <0>        -0.1567
     24 C17        -1.3497   -4.4859    2.4532 C.3       1 <0>        -0.1231
     25 C18        -2.6645   -3.8235    2.8697 C.3       1 <0>        -0.1116
     26 C19        -3.7685   -4.2190    1.8870 C.3       1 <0>         0.1081
     27 C20        -5.1079   -3.6552    2.3689 C.3       1 <0>        -0.1550
     28 C21        -6.2035   -4.0178    1.3613 C.3       1 <0>         0.1088
     29 H5         -6.2798   -5.1020    1.2793 H         1 <0>         0.0669
     30 C22        -5.8374   -3.4235   -0.0047 C.3       1 <0>        -0.2046
     31 C23        -4.4260   -3.8497   -0.3450 C.2       1 <0>         0.4906
     32 O4         -4.1632   -4.3234   -1.4250 O.2       1 <0>        -0.4466
     33 O5         -3.4695   -3.6855    0.5922 O.3       1 <0>        -0.3630
     34 O6         -7.4535   -3.4818    1.7998 O.3       1 <0>        -0.5555
     35 C24         3.9339   -2.6881    2.2665 C.3       1 <0>        -0.1884
     36 C25         5.2025   -4.7864    1.7904 C.3       1 <0>        -0.0992
     37 S1          6.4651   -4.2012    2.9540 S.3       1 <0>        -0.0818
     38 C26         7.9558   -4.9383    2.3717 C.ar      1 <0>        -0.0905
     39 C27         7.9371   -5.7503    1.2440 C.ar      1 <0>        -0.1367
     40 C28         9.1073   -6.3262    0.7905 C.ar      1 <0>        -0.1000
     41 C29        10.2969   -6.0959    1.4571 C.ar      1 <0>        -0.1273
     42 C30        10.3193   -5.2887    2.5799 C.ar      1 <0>        -0.1002
     43 C31         9.1541   -4.7044    3.0356 C.ar      1 <0>        -0.1019
     44 H6          1.6885    1.8976   -0.6860 H         1 <0>         0.0601
     45 H7          0.3896    1.8842   -1.9029 H         1 <0>         0.0595
     46 H8         -0.0149    1.9030   -0.1696 H         1 <0>         0.0599
     47 H9         -0.3128   -0.3643   -1.1284 H         1 <0>         0.0710
     48 H10         1.3906   -0.3697   -1.6448 H         1 <0>         0.0701
     49 H11         2.5111    1.1105    0.7974 H         1 <0>         0.0762
     50 H12         2.8094   -0.3320    1.7966 H         1 <0>         0.0716
     51 H13         3.2139   -0.3508    0.0633 H         1 <0>         0.0600
     52 H14        -0.8805   -0.3378    1.3045 H         1 <0>         0.0609
     53 H15         0.4184   -0.3244    2.5214 H         1 <0>         0.0686
     54 H16         0.1200    1.1181    1.5222 H         1 <0>         0.0753
     55 H17         2.7659   -5.6898    1.0409 H         1 <0>         0.0892
     56 H18         3.0672   -4.1640    0.1741 H         1 <0>         0.0813
     57 H19         1.0367   -5.7366    2.8990 H         1 <0>         0.0993
     58 H20         0.5997   -3.1883    5.8727 H         1 <0>         0.0650
     59 H21         0.3178   -4.6899    6.7847 H         1 <0>         0.0703
     60 H22         1.8359   -5.9137    5.2392 H         1 <0>         0.0734
     61 H23         2.6790   -4.5472    6.0090 H         1 <0>         0.0723
     62 H24         0.3027   -6.5878    4.3806 H         1 <0>         0.0610
     63 H25        -0.8749   -6.5981    5.7154 H         1 <0>         0.0554
     64 H26        -1.4387   -6.4678    4.0321 H         1 <0>         0.0569
     65 H27        -1.0786   -4.1563    1.4503 H         1 <0>         0.0717
     66 H28        -1.4707   -5.5692    2.4594 H         1 <0>         0.0697
     67 H29        -2.9357   -4.1532    3.8727 H         1 <0>         0.0917
     68 H30        -2.5435   -2.7403    2.8636 H         1 <0>         0.0783
     69 H31        -3.8306   -5.3056    1.8274 H         1 <0>         0.0786
     70 H32        -5.3529   -4.0815    3.3418 H         1 <0>         0.0985
     71 H33        -5.0365   -2.5709    2.4541 H         1 <0>         0.0910
     72 H34        -6.5263   -3.7947   -0.7634 H         1 <0>         0.1070
     73 H35        -5.8918   -2.3359    0.0413 H         1 <0>         0.1173
     74 H36        -8.1933   -3.6740    1.2075 H         1 <0>         0.3857
     75 H37         3.0138   -2.2898    2.6943 H         1 <0>         0.0927
     76 H38         4.7782   -2.4091    2.8969 H         1 <0>         0.0715
     77 H39         4.0764   -2.2791    1.2663 H         1 <0>         0.0630
     78 H40         5.1601   -5.8753    1.8175 H         1 <0>         0.0948
     79 H41         5.4568   -4.4577    0.7827 H         1 <0>         0.0983
     80 H42         7.0084   -5.9309    0.7232 H         1 <0>         0.1200
     81 H43         9.0934   -6.9577   -0.0855 H         1 <0>         0.1245
     82 H44        11.2107   -6.5476    1.1002 H         1 <0>         0.1246
     83 H45        11.2501   -5.1113    3.0982 H         1 <0>         0.1277
     84 H46         9.1732   -4.0700    3.9094 H         1 <0>         0.1271
@<TRIPOS>BOND
     1    1    2 1
     2    1   44 1
     3    1   45 1
     4    1   46 1
     5    2    3 1
     6    2   47 1
     7    2   48 1
     8    3    4 1
     9    3    5 1
    10    3    6 1
    11    4   49 1
    12    4   50 1
    13    4   51 1
    14    5   52 1
    15    5   53 1
    16    5   54 1
    17    6    7 2
    18    6    8 1
    19    8    9 1
    20    9   10 1
    21    9   16 1
    22    9   11 1
    23   11   12 1
    24   11   55 1
    25   11   56 1
    26   12   13 1
    27   12   35 1
    28   12   36 1
    29   13   14 1
    30   14   15 1
    31   14   22 1
    32   14   16 1
    33   16   17 1
    34   16   57 1
    35   17   18 1
    36   17   19 1
    37   17   24 1
    38   19   20 1
    39   19   21 1
    40   19   23 1
    41   21   22 1
    42   21   58 1
    43   21   59 1
    44   22   60 1
    45   22   61 1
    46   23   62 1
    47   23   63 1
    48   23   64 1
    49   24   25 1
    50   24   65 1
    51   24   66 1
    52   25   26 1
    53   25   67 1
    54   25   68 1
    55   26   33 1
    56   26   27 1
    57   26   69 1
    58   27   28 1
    59   27   70 1
    60   27   71 1
    61   28   29 1
    62   28   30 1
    63   28   34 1
    64   30   31 1
    65   30   72 1
    66   30   73 1
    67   31   32 2
    68   31   33 1
    69   34   74 1
    70   35   75 1
    71   35   76 1
    72   35   77 1
    73   36   37 1
    74   36   78 1
    75   36   79 1
    76   37   38 1
    77   38   43 ar
    78   38   39 ar
    79   39   40 ar
    80   39   80 1
    81   40   41 ar
    82   40   81 1
    83   41   42 ar
    84   41   82 1
    85   42   43 ar
    86   42   83 1
    87   43   84 1
@<TRIPOS>MOLECULE
CHEMBL82467__4
   84    87     0     0     0
SMALL
USER_CHARGES

@<TRIPOS>ATOM
      1 C1         -0.0187    1.5258    0.0104 C.3       1 <0>        -0.1558
      2 C2          0.0021   -0.0041    0.0020 C.3       1 <0>        -0.1028
      3 C3          0.7421   -0.5109    1.2415 C.3       1 <0>        -0.0559
      4 C4          2.1775    0.0187    1.2307 C.3       1 <0>        -0.1428
      5 C5          0.0259   -0.0175    2.5003 C.3       1 <0>        -0.1322
      6 C6          0.7625   -2.0177    1.2333 C.2       1 <0>         0.4705
      7 O1          0.2389   -2.6241    0.3288 O.2       1 <0>        -0.5058
      8 O2          1.3624   -2.6863    2.2307 O.3       1 <0>        -0.3317
      9 C7          1.3437   -4.1126    2.1585 C.3       1 <0>         0.0958
     10 H1          0.4476   -4.4400    1.6379 H         1 <0>         0.0966
     11 C8          2.5753   -4.5497    1.3446 C.3       1 <0>        -0.1671
     12 C9          2.6251   -6.0697    1.2165 C.3       1 <0>         0.1582
     13 O3          2.4118   -6.7183    2.4569 O.3       1 <0>        -0.3604
     14 C10         1.4016   -6.2843    3.3420 C.3       1 <0>         0.1126
     15 H2          1.5707   -6.7442    4.3298 H         1 <0>         0.1096
     16 C11         1.4479   -4.7590    3.5322 C.3       1 <0>        -0.1003
     17 C12         0.4030   -4.3474    4.5444 C.3       1 <0>        -0.0668
     18 H3          0.7071   -4.8113    5.5161 H         1 <0>         0.0663
     19 C13        -1.0001   -4.8541    4.2581 C.3       1 <0>        -0.0858
     20 H4         -1.6001   -4.7062    5.1802 H         1 <0>         0.0697
     21 C14        -1.0158   -6.3461    3.9479 C.3       1 <0>        -0.1116
     22 C15         0.0081   -6.6875    2.8649 C.3       1 <0>        -0.1546
     23 C16        -1.6788   -4.0550    3.1506 C.3       1 <0>        -0.1552
     24 C17         0.3841   -2.8412    4.7957 C.3       1 <0>        -0.1165
     25 C18        -0.6081   -2.5236    5.9163 C.3       1 <0>        -0.1195
     26 C19        -0.6271   -1.0146    6.1681 C.3       1 <0>         0.1107
     27 C20        -1.5280   -0.7079    7.3673 C.3       1 <0>        -0.1537
     28 C21        -1.5776    0.8070    7.5908 C.3       1 <0>         0.1044
     29 H5         -2.2285    1.0302    8.4362 H         1 <0>         0.0775
     30 C22        -2.1296    1.4771    6.3262 C.3       1 <0>        -0.2068
     31 C23        -1.3285    0.9859    5.1403 C.2       1 <0>         0.4953
     32 O4         -0.8745    1.7615    4.3328 O.2       1 <0>        -0.4475
     33 O5         -1.1361   -0.3431    5.0103 O.3       1 <0>        -0.3615
     34 O6         -0.2613    1.2947    7.8583 O.3       1 <0>        -0.5631
     35 C24         1.6272   -6.5436    0.1583 C.3       1 <0>        -0.1808
     36 C25         4.0384   -6.4507    0.7224 C.3       1 <0>        -0.1042
     37 S1          4.1089   -8.2363    0.4106 S.3       1 <0>        -0.0808
     38 C26         5.7609   -8.5081   -0.1387 C.ar      1 <0>        -0.0905
     39 C27         6.6485   -7.4427   -0.2309 C.ar      1 <0>        -0.1369
     40 C28         7.9423   -7.6595   -0.6619 C.ar      1 <0>        -0.1001
     41 C29         8.3553   -8.9350   -1.0015 C.ar      1 <0>        -0.1276
     42 C30         7.4746   -9.9976   -0.9115 C.ar      1 <0>        -0.1001
     43 C31         6.1811   -9.7893   -0.4754 C.ar      1 <0>        -0.1019
     44 H6          1.0039    1.9031    0.0027 H         1 <0>         0.0586
     45 H7         -0.5459    1.8868   -0.8726 H         1 <0>         0.0574
     46 H8         -0.5289    1.8773    0.9072 H         1 <0>         0.0634
     47 H9         -1.0205   -0.3814    0.0098 H         1 <0>         0.0688
     48 H10         0.5123   -0.3556   -0.8948 H         1 <0>         0.0673
     49 H11         2.1627    1.1086    1.2367 H         1 <0>         0.0758
     50 H12         2.7046   -0.3424    2.1137 H         1 <0>         0.0674
     51 H13         2.6876   -0.3328    0.3339 H         1 <0>         0.0566
     52 H14        -0.9967   -0.3948    2.5081 H         1 <0>         0.0543
     53 H15         0.5531   -0.3786    3.3834 H         1 <0>         0.0692
     54 H16         0.0111    1.0724    2.5063 H         1 <0>         0.0861
     55 H17         2.5203   -4.0990    0.3523 H         1 <0>         0.0824
     56 H18         3.4754   -4.1945    1.8492 H         1 <0>         0.0823
     57 H19         2.4442   -4.5174    3.9453 H         1 <0>         0.0849
     58 H20        -0.7796   -6.9095    4.8544 H         1 <0>         0.0647
     59 H21        -2.0117   -6.6378    3.6054 H         1 <0>         0.0677
     60 H22        -0.2514   -6.1602    1.9506 H         1 <0>         0.0692
     61 H23        -0.0137   -7.7637    2.6785 H         1 <0>         0.0744
     62 H24        -1.0938   -4.1346    2.2344 H         1 <0>         0.0541
     63 H25        -2.6797   -4.4506    2.9782 H         1 <0>         0.0534
     64 H26        -1.7480   -3.0085    3.4477 H         1 <0>         0.0621
     65 H27         1.3804   -2.5090    5.0876 H         1 <0>         0.0644
     66 H28         0.0811   -2.3247    3.8850 H         1 <0>         0.0887
     67 H29        -1.6043   -2.8559    5.6244 H         1 <0>         0.0798
     68 H30        -0.3051   -3.0402    6.8270 H         1 <0>         0.0844
     69 H31         0.3853   -0.6674    6.3745 H         1 <0>         0.0848
     70 H32        -2.5337   -1.0796    7.1711 H         1 <0>         0.0946
     71 H33        -1.1274   -1.1938    8.2569 H         1 <0>         0.0965
     72 H34        -3.1785    1.2103    6.1969 H         1 <0>         0.1163
     73 H35        -2.0330    2.5595    6.4119 H         1 <0>         0.1064
     74 H36        -0.2186    2.2488    8.0100 H         1 <0>         0.3859
     75 H37         1.8777   -6.0961   -0.8036 H         1 <0>         0.0707
     76 H38         1.6726   -7.6295    0.0766 H         1 <0>         0.0781
     77 H39         0.6204   -6.2427    0.4478 H         1 <0>         0.0660
     78 H40         4.2586   -5.9119   -0.1992 H         1 <0>         0.0985
     79 H41         4.7729   -6.1853    1.4827 H         1 <0>         0.0944
     80 H42         6.3266   -6.4464    0.0338 H         1 <0>         0.1199
     81 H43         8.6325   -6.8320   -0.7341 H         1 <0>         0.1244
     82 H44         9.3678   -9.1016   -1.3383 H         1 <0>         0.1245
     83 H45         7.8004  -10.9922   -1.1779 H         1 <0>         0.1277
     84 H46         5.4954  -10.6204   -0.4004 H         1 <0>         0.1273
@<TRIPOS>BOND
     1    1    2 1
     2    1   44 1
     3    1   45 1
     4    1   46 1
     5    2    3 1
     6    2   47 1
     7    2   48 1
     8    3    4 1
     9    3    5 1
    10    3    6 1
    11    4   49 1
    12    4   50 1
    13    4   51 1
    14    5   52 1
    15    5   53 1
    16    5   54 1
    17    6    7 2
    18    6    8 1
    19    8    9 1
    20    9   10 1
    21    9   16 1
    22    9   11 1
    23   11   12 1
    24   11   55 1
    25   11   56 1
    26   12   13 1
    27   12   35 1
    28   12   36 1
    29   13   14 1
    30   14   15 1
    31   14   22 1
    32   14   16 1
    33   16   17 1
    34   16   57 1
    35   17   18 1
    36   17   19 1
    37   17   24 1
    38   19   20 1
    39   19   21 1
    40   19   23 1
    41   21   22 1
    42   21   58 1
    43   21   59 1
    44   22   60 1
    45   22   61 1
    46   23   62 1
    47   23   63 1
    48   23   64 1
    49   24   25 1
    50   24   65 1
    51   24   66 1
    52   25   26 1
    53   25   67 1
    54   25   68 1
    55   26   33 1
    56   26   27 1
    57   26   69 1
    58   27   28 1
    59   27   70 1
    60   27   71 1
    61   28   29 1
    62   28   30 1
    63   28   34 1
    64   30   31 1
    65   30   72 1
    66   30   73 1
    67   31   32 2
    68   31   33 1
    69   34   74 1
    70   35   75 1
    71   35   76 1
    72   35   77 1
    73   36   37 1
    74   36   78 1
    75   36   79 1
    76   37   38 1
    77   38   43 ar
    78   38   39 ar
    79   39   40 ar
    80   39   80 1
    81   40   41 ar
    82   40   81 1
    83   41   42 ar
    84   41   82 1
    85   42   43 ar
    86   42   83 1
    87   43   84 1
@<TRIPOS>MOLECULE
CHEMBL82467__5
   84    87     0     0     0
SMALL
USER_CHARGES

@<TRIPOS>ATOM
      1 C1         -0.0187    1.5258    0.0104 C.3       1 <0>        -0.1565
      2 C2          0.0021   -0.0041    0.0020 C.3       1 <0>        -0.1052
      3 C3          0.7421   -0.5109    1.2415 C.3       1 <0>        -0.0505
      4 C4          2.1775    0.0187    1.2307 C.3       1 <0>        -0.1461
      5 C5          0.0259   -0.0175    2.5003 C.3       1 <0>        -0.1508
      6 C6          0.7625   -2.0177    1.2333 C.2       1 <0>         0.4677
      7 O1          0.2389   -2.6241    0.3288 O.2       1 <0>        -0.5016
      8 O2          1.3624   -2.6863    2.2307 O.3       1 <0>        -0.3310
      9 C7          1.3437   -4.1126    2.1585 C.3       1 <0>         0.0961
     10 H1          0.4476   -4.4400    1.6379 H         1 <0>         0.0973
     11 C8          2.5753   -4.5497    1.3446 C.3       1 <0>        -0.1673
     12 C9          2.6251   -6.0697    1.2165 C.3       1 <0>         0.1581
     13 O3          2.4118   -6.7183    2.4569 O.3       1 <0>        -0.3599
     14 C10         1.4016   -6.2843    3.3420 C.3       1 <0>         0.1124
     15 H2          1.5707   -6.7442    4.3298 H         1 <0>         0.1103
     16 C11         1.4479   -4.7590    3.5322 C.3       1 <0>        -0.1008
     17 C12         0.4030   -4.3474    4.5444 C.3       1 <0>        -0.0677
     18 H3          0.7071   -4.8113    5.5161 H         1 <0>         0.0693
     19 C13        -1.0001   -4.8541    4.2581 C.3       1 <0>        -0.0879
     20 H4         -1.6001   -4.7062    5.1802 H         1 <0>         0.0711
     21 C14        -1.0158   -6.3461    3.9479 C.3       1 <0>        -0.1116
     22 C15         0.0081   -6.6875    2.8649 C.3       1 <0>        -0.1546
     23 C16        -1.6788   -4.0550    3.1506 C.3       1 <0>        -0.1546
     24 C17         0.3841   -2.8412    4.7957 C.3       1 <0>        -0.1144
     25 C18        -0.6081   -2.5236    5.9163 C.3       1 <0>        -0.1179
     26 C19        -0.6271   -1.0146    6.1681 C.3       1 <0>         0.1095
     27 C20        -1.7044   -0.6828    7.2040 C.3       1 <0>        -0.1565
     28 C21        -1.6926    0.8233    7.4844 C.3       1 <0>         0.1090
     29 H5         -1.9013    1.3678    6.5634 H         1 <0>         0.0667
     30 C22        -0.3077    1.2186    8.0126 C.3       1 <0>        -0.2057
     31 C23         0.7351    0.6931    7.0505 C.2       1 <0>         0.4912
     32 O4          1.6189    1.4078    6.6406 O.2       1 <0>        -0.4473
     33 O5          0.6498   -0.5965    6.6634 O.3       1 <0>        -0.3618
     34 O6         -2.6875    1.1362    8.4613 O.3       1 <0>        -0.5555
     35 C24         1.6272   -6.5436    0.1583 C.3       1 <0>        -0.1807
     36 C25         4.0384   -6.4507    0.7224 C.3       1 <0>        -0.1046
     37 S1          4.1089   -8.2363    0.4106 S.3       1 <0>        -0.0807
     38 C26         5.7609   -8.5081   -0.1387 C.ar      1 <0>        -0.0906
     39 C27         6.6485   -7.4427   -0.2309 C.ar      1 <0>        -0.1368
     40 C28         7.9423   -7.6595   -0.6619 C.ar      1 <0>        -0.1001
     41 C29         8.3553   -8.9350   -1.0015 C.ar      1 <0>        -0.1274
     42 C30         7.4746   -9.9976   -0.9115 C.ar      1 <0>        -0.1001
     43 C31         6.1811   -9.7893   -0.4754 C.ar      1 <0>        -0.1018
     44 H6          1.0039    1.9031    0.0027 H         1 <0>         0.0606
     45 H7         -0.5459    1.8868   -0.8726 H         1 <0>         0.0604
     46 H8         -0.5289    1.8773    0.9072 H         1 <0>         0.0595
     47 H9         -1.0205   -0.3814    0.0098 H         1 <0>         0.0711
     48 H10         0.5123   -0.3556   -0.8948 H         1 <0>         0.0713
     49 H11         2.1627    1.1086    1.2367 H         1 <0>         0.0767
     50 H12         2.7046   -0.3424    2.1137 H         1 <0>         0.0710
     51 H13         2.6876   -0.3328    0.3339 H         1 <0>         0.0600
     52 H14        -0.9967   -0.3948    2.5081 H         1 <0>         0.0601
     53 H15         0.5531   -0.3786    3.3834 H         1 <0>         0.0728
     54 H16         0.0111    1.0724    2.5063 H         1 <0>         0.0765
     55 H17         2.5203   -4.0990    0.3523 H         1 <0>         0.0825
     56 H18         3.4754   -4.1945    1.8492 H         1 <0>         0.0832
     57 H19         2.4442   -4.5174    3.9453 H         1 <0>         0.0865
     58 H20        -0.7796   -6.9095    4.8544 H         1 <0>         0.0657
     59 H21        -2.0117   -6.6378    3.6054 H         1 <0>         0.0684
     60 H22        -0.2514   -6.1602    1.9506 H         1 <0>         0.0690
     61 H23        -0.0137   -7.7637    2.6785 H         1 <0>         0.0750
     62 H24        -1.0938   -4.1346    2.2344 H         1 <0>         0.0555
     63 H25        -2.6797   -4.4506    2.9782 H         1 <0>         0.0560
     64 H26        -1.7480   -3.0085    3.4477 H         1 <0>         0.0559
     65 H27         1.3804   -2.5090    5.0876 H         1 <0>         0.0754
     66 H28         0.0811   -2.3247    3.8850 H         1 <0>         0.0763
     67 H29        -1.6043   -2.8559    5.6244 H         1 <0>         0.0908
     68 H30        -0.3051   -3.0402    6.8270 H         1 <0>         0.0794
     69 H31        -0.8446   -0.4929    5.2362 H         1 <0>         0.0782
     70 H32        -2.6816   -0.9733    6.8183 H         1 <0>         0.0979
     71 H33        -1.5012   -1.2261    8.1269 H         1 <0>         0.0915
     72 H34        -0.2350    2.3043    8.0763 H         1 <0>         0.1069
     73 H35        -0.1518    0.7809    8.9985 H         1 <0>         0.1176
     74 H36        -2.7354    2.0753    8.6870 H         1 <0>         0.3856
     75 H37         1.8777   -6.0961   -0.8036 H         1 <0>         0.0707
     76 H38         1.6726   -7.6295    0.0766 H         1 <0>         0.0784
     77 H39         0.6204   -6.2427    0.4478 H         1 <0>         0.0658
     78 H40         4.2586   -5.9119   -0.1992 H         1 <0>         0.0985
     79 H41         4.7729   -6.1853    1.4827 H         1 <0>         0.0946
     80 H42         6.3266   -6.4464    0.0338 H         1 <0>         0.1198
     81 H43         8.6325   -6.8320   -0.7341 H         1 <0>         0.1245
     82 H44         9.3678   -9.1016   -1.3383 H         1 <0>         0.1246
     83 H45         7.8004  -10.9922   -1.1779 H         1 <0>         0.1278
     84 H46         5.4954  -10.6204   -0.4004 H         1 <0>         0.1273
@<TRIPOS>BOND
     1    1    2 1
     2    1   44 1
     3    1   45 1
     4    1   46 1
     5    2    3 1
     6    2   47 1
     7    2   48 1
     8    3    4 1
     9    3    5 1
    10    3    6 1
    11    4   49 1
    12    4   50 1
    13    4   51 1
    14    5   52 1
    15    5   53 1
    16    5   54 1
    17    6    7 2
    18    6    8 1
    19    8    9 1
    20    9   10 1
    21    9   16 1
    22    9   11 1
    23   11   12 1
    24   11   55 1
    25   11   56 1
    26   12   13 1
    27   12   35 1
    28   12   36 1
    29   13   14 1
    30   14   15 1
    31   14   22 1
    32   14   16 1
    33   16   17 1
    34   16   57 1
    35   17   18 1
    36   17   19 1
    37   17   24 1
    38   19   20 1
    39   19   21 1
    40   19   23 1
    41   21   22 1
    42   21   58 1
    43   21   59 1
    44   22   60 1
    45   22   61 1
    46   23   62 1
    47   23   63 1
    48   23   64 1
    49   24   25 1
    50   24   65 1
    51   24   66 1
    52   25   26 1
    53   25   67 1
    54   25   68 1
    55   26   33 1
    56   26   27 1
    57   26   69 1
    58   27   28 1
    59   27   70 1
    60   27   71 1
    61   28   29 1
    62   28   30 1
    63   28   34 1
    64   30   31 1
    65   30   72 1
    66   30   73 1
    67   31   32 2
    68   31   33 1
    69   34   74 1
    70   35   75 1
    71   35   76 1
    72   35   77 1
    73   36   37 1
    74   36   78 1
    75   36   79 1
    76   37   38 1
    77   38   43 ar
    78   38   39 ar
    79   39   40 ar
    80   39   80 1
    81   40   41 ar
    82   40   81 1
    83   41   42 ar
    84   41   82 1
    85   42   43 ar
    86   42   83 1
    87   43   84 1
@<TRIPOS>MOLECULE
CHEMBL82467__6
   84    87     0     0     0
SMALL
USER_CHARGES

@<TRIPOS>ATOM
      1 C1         -0.3759    0.6844    5.8699 C.3       1 <0>        -0.1567
      2 C2          0.3875   -0.5386    6.3821 C.3       1 <0>        -0.1044
      3 C3          1.6826   -0.7024    5.5842 C.3       1 <0>        -0.0518
      4 C4          1.3487   -0.8930    4.1033 C.3       1 <0>        -0.1528
      5 C5          2.5483    0.5476    5.7549 C.3       1 <0>        -0.1473
      6 C6          2.4346   -1.9070    6.0887 C.2       1 <0>         0.4646
      7 O1          1.9389   -2.6205    6.9284 O.2       1 <0>        -0.4924
      8 O2          3.6550   -2.1873    5.6053 O.3       1 <0>        -0.3380
      9 C7          4.2122   -3.4579    5.9473 C.3       1 <0>         0.0765
     10 H1          3.5409   -3.9793    6.6298 H         1 <0>         0.1029
     11 C8          4.4032   -4.2935    4.6770 C.3       1 <0>        -0.1477
     12 C9          5.4096   -3.5957    3.7588 C.3       1 <0>         0.1419
     13 O3          6.6427   -3.4039    4.4566 O.3       1 <0>        -0.3546
     14 C10         6.5263   -2.5876    5.6223 C.3       1 <0>         0.0981
     15 H2          6.1308   -1.6111    5.3430 H         1 <0>         0.0658
     16 C11         5.5726   -3.2572    6.6196 C.3       1 <0>        -0.1148
     17 C12         5.4175   -2.3666    7.8529 C.3       1 <0>        -0.0703
     18 H3          5.0211   -1.3963    7.5537 H         1 <0>         0.0710
     19 C13         6.7847   -2.1779    8.5149 C.3       1 <0>        -0.0867
     20 H4          6.6778   -1.5415    9.3933 H         1 <0>         0.0744
     21 C14         7.7488   -1.5217    7.5250 C.3       1 <0>        -0.1115
     22 C15         7.8959   -2.4126    6.2794 C.3       1 <0>        -0.1117
     23 C16         7.3385   -3.5402    8.9372 C.3       1 <0>        -0.1563
     24 C17         4.4566   -3.0278    8.8430 C.3       1 <0>        -0.1309
     25 C18         4.2046   -2.0815   10.0186 C.3       1 <0>        -0.1100
     26 C19         3.2436   -2.7427   11.0086 C.3       1 <0>         0.1111
     27 C20         2.8969   -1.7523   12.1234 C.3       1 <0>        -0.1533
     28 C21         1.9676   -2.4310   13.1348 C.3       1 <0>         0.1043
     29 H5          1.7287   -1.7328   13.9370 H         1 <0>         0.0789
     30 C22         2.6801   -3.6584   13.7170 C.3       1 <0>        -0.2048
     31 C23         3.1786   -4.5074   12.5680 C.2       1 <0>         0.4959
     32 O4          2.9670   -5.6966   12.5365 O.2       1 <0>        -0.4538
     33 O5          3.8665   -3.8986   11.5800 O.3       1 <0>        -0.3666
     34 O6          0.7642   -2.8386   12.4807 O.3       1 <0>        -0.5623
     35 C24         5.6541   -4.4604    2.5205 C.3       1 <0>        -0.1446
     36 C25         4.8509   -2.2378    3.3291 C.3       1 <0>        -0.1393
     37 S1          5.9562   -1.4907    2.0999 S.3       1 <0>        -0.0972
     38 C26         5.2713    0.1098    1.8277 C.ar      1 <0>        -0.0869
     39 C27         4.0642    0.4608    2.4202 C.ar      1 <0>        -0.1430
     40 C28         3.5304    1.7159    2.2046 C.ar      1 <0>        -0.0998
     41 C29         4.1956    2.6232    1.4002 C.ar      1 <0>        -0.1274
     42 C30         5.3969    2.2772    0.8086 C.ar      1 <0>        -0.1004
     43 C31         5.9397    1.0261    1.0247 C.ar      1 <0>        -0.1017
     44 H6         -0.6139    0.5486    4.8149 H         1 <0>         0.0597
     45 H7         -1.2986    0.8011    6.4383 H         1 <0>         0.0605
     46 H8          0.2408    1.5749    5.9915 H         1 <0>         0.0601
     47 H9          0.6254   -0.4028    7.4371 H         1 <0>         0.0711
     48 H10        -0.2293   -1.4291    6.2605 H         1 <0>         0.0724
     49 H11         0.8224   -0.0131    3.7333 H         1 <0>         0.0804
     50 H12         2.2703   -1.0297    3.5377 H         1 <0>         0.0669
     51 H13         0.7153   -1.7721    3.9839 H         1 <0>         0.0643
     52 H14         2.7863    0.6834    6.8099 H         1 <0>         0.0622
     53 H15         3.4710    0.4309    5.1865 H         1 <0>         0.0675
     54 H16         2.0045    1.4189    5.3900 H         1 <0>         0.0764
     55 H17         4.7787   -5.2813    4.9443 H         1 <0>         0.0989
     56 H18         3.4486   -4.3940    4.1606 H         1 <0>         0.0817
     57 H19         5.9779   -4.2245    6.9165 H         1 <0>         0.1000
     58 H20         7.3591   -0.5473    7.2307 H         1 <0>         0.0625
     59 H21         8.7229   -1.3947    7.9974 H         1 <0>         0.0701
     60 H22         8.2860   -3.3872    6.5727 H         1 <0>         0.0742
     61 H23         8.5810   -1.9433    5.5733 H         1 <0>         0.0725
     62 H24         7.4444   -4.1774    8.0592 H         1 <0>         0.0597
     63 H25         8.3121   -3.4064    9.4086 H         1 <0>         0.0537
     64 H26         6.6534   -4.0074    9.6446 H         1 <0>         0.0618
     65 H27         3.5128   -3.2454    8.3430 H         1 <0>         0.0787
     66 H28         4.8952   -3.9553    9.2108 H         1 <0>         0.0766
     67 H29         5.1484   -1.8638   10.5185 H         1 <0>         0.0772
     68 H30         3.7659   -1.1539    9.6508 H         1 <0>         0.0806
     69 H31         2.3328   -3.0396   10.4886 H         1 <0>         0.0860
     70 H32         3.8110   -1.4350   12.6253 H         1 <0>         0.0948
     71 H33         2.3963   -0.8837   11.6955 H         1 <0>         0.0963
     72 H34         3.5228   -3.3379   14.3296 H         1 <0>         0.1178
     73 H35         1.9821   -4.2349   14.3240 H         1 <0>         0.1073
     74 H36         0.1288   -3.2765   13.0634 H         1 <0>         0.3857
     75 H37         4.7147   -4.6049    1.9870 H         1 <0>         0.0743
     76 H38         6.3708   -3.9638    1.8663 H         1 <0>         0.0759
     77 H39         6.0511   -5.4285    2.8259 H         1 <0>         0.0701
     78 H40         3.8613   -2.3737    2.8928 H         1 <0>         0.0889
     79 H41         4.7782   -1.5834    4.1977 H         1 <0>         0.1195
     80 H42         3.5440   -0.2473    3.0482 H         1 <0>         0.1287
     81 H43         2.5922    1.9893    2.6644 H         1 <0>         0.1226
     82 H44         3.7758    3.6042    1.2333 H         1 <0>         0.1233
     83 H45         5.9134    2.9881    0.1807 H         1 <0>         0.1264
     84 H46         6.8804    0.7584    0.5665 H         1 <0>         0.1261
@<TRIPOS>BOND
     1    1    2 1
     2    1   44 1
     3    1   45 1
     4    1   46 1
     5    2    3 1
     6    2   47 1
     7    2   48 1
     8    3    4 1
     9    3    5 1
    10    3    6 1
    11    4   49 1
    12    4   50 1
    13    4   51 1
    14    5   52 1
    15    5   53 1
    16    5   54 1
    17    6    7 2
    18    6    8 1
    19    8    9 1
    20    9   10 1
    21    9   16 1
    22    9   11 1
    23   11   12 1
    24   11   55 1
    25   11   56 1
    26   12   13 1
    27   12   35 1
    28   12   36 1
    29   13   14 1
    30   14   15 1
    31   14   22 1
    32   14   16 1
    33   16   17 1
    34   16   57 1
    35   17   18 1
    36   17   19 1
    37   17   24 1
    38   19   20 1
    39   19   21 1
    40   19   23 1
    41   21   22 1
    42   21   58 1
    43   21   59 1
    44   22   60 1
    45   22   61 1
    46   23   62 1
    47   23   63 1
    48   23   64 1
    49   24   25 1
    50   24   65 1
    51   24   66 1
    52   25   26 1
    53   25   67 1
    54   25   68 1
    55   26   33 1
    56   26   27 1
    57   26   69 1
    58   27   28 1
    59   27   70 1
    60   27   71 1
    61   28   29 1
    62   28   30 1
    63   28   34 1
    64   30   31 1
    65   30   72 1
    66   30   73 1
    67   31   32 2
    68   31   33 1
    69   34   74 1
    70   35   75 1
    71   35   76 1
    72   35   77 1
    73   36   37 1
    74   36   78 1
    75   36   79 1
    76   37   38 1
    77   38   43 ar
    78   38   39 ar
    79   39   40 ar
    80   39   80 1
    81   40   41 ar
    82   40   81 1
    83   41   42 ar
    84   41   82 1
    85   42   43 ar
    86   42   83 1
    87   43   84 1
@<TRIPOS>MOLECULE
CHEMBL82467__7
   84    87     0     0     0
SMALL
USER_CHARGES

@<TRIPOS>ATOM
      1 C1         -0.3662    0.6845    5.8773 C.3       1 <0>        -0.1563
      2 C2          0.3974   -0.5387    6.3887 C.3       1 <0>        -0.1040
      3 C3          1.6916   -0.7028    5.5894 C.3       1 <0>        -0.0507
      4 C4          1.3560   -0.8934    4.1089 C.3       1 <0>        -0.1525
      5 C5          2.5579    0.5469    5.7592 C.3       1 <0>        -0.1466
      6 C6          2.4438   -1.9076    6.0931 C.2       1 <0>         0.4599
      7 O1          1.9488   -2.6210    6.9334 O.2       1 <0>        -0.4806
      8 O2          3.6636   -2.1883    5.6083 O.3       1 <0>        -0.3399
      9 C7          4.2208   -3.4591    5.9498 C.3       1 <0>         0.0766
     10 H1          3.5504   -3.9800    6.6333 H         1 <0>         0.1032
     11 C8          4.4099   -4.2949    4.6794 C.3       1 <0>        -0.1476
     12 C9          5.4152   -3.5977    3.7597 C.3       1 <0>         0.1422
     13 O3          6.6494   -3.4061    4.4558 O.3       1 <0>        -0.3548
     14 C10         6.5348   -2.5895    5.6214 C.3       1 <0>         0.0977
     15 H2          6.1392   -1.6129    5.3425 H         1 <0>         0.0661
     16 C11         5.5822   -3.2586    6.6203 C.3       1 <0>        -0.1143
     17 C12         5.4292   -2.3676    7.8536 C.3       1 <0>        -0.0708
     18 H3          5.0326   -1.3973    7.5547 H         1 <0>         0.0728
     19 C13         6.7973   -2.1793    8.5136 C.3       1 <0>        -0.0884
     20 H4          6.6918   -1.5427    9.3921 H         1 <0>         0.0747
     21 C14         7.7603   -1.5236    7.5223 C.3       1 <0>        -0.1116
     22 C15         7.9054   -2.4148    6.2766 C.3       1 <0>        -0.1116
     23 C16         7.3512   -3.5417    8.9354 C.3       1 <0>        -0.1555
     24 C17         4.4693   -3.0283    8.8451 C.3       1 <0>        -0.1329
     25 C18         4.2193   -2.0817   10.0208 C.3       1 <0>        -0.1085
     26 C19         3.2595   -2.7424   11.0123 C.3       1 <0>         0.1092
     27 C20         3.1024   -1.8480   12.2450 C.3       1 <0>        -0.1550
     28 C21         2.1090   -2.4927   13.2169 C.3       1 <0>         0.1091
     29 H5          2.4828   -3.4684   13.5274 H         1 <0>         0.0666
     30 C22         0.7595   -2.6615   12.5073 C.3       1 <0>        -0.2051
     31 C23         0.9986   -3.3788   11.1967 C.2       1 <0>         0.4905
     32 O4          0.3290   -4.3331   10.8793 O.2       1 <0>        -0.4481
     33 O5          1.9811   -2.9222   10.3927 O.3       1 <0>        -0.3538
     34 O6          1.9483   -1.6547   14.3632 O.3       1 <0>        -0.5559
     35 C24         5.6578   -4.4627    2.5213 C.3       1 <0>        -0.1446
     36 C25         4.8563   -2.2397    3.3305 C.3       1 <0>        -0.1392
     37 S1          5.9602   -1.4932    2.0997 S.3       1 <0>        -0.0980
     38 C26         5.2755    0.1074    1.8281 C.ar      1 <0>        -0.0869
     39 C27         4.0693    0.4590    2.4223 C.ar      1 <0>        -0.1428
     40 C28         3.5357    1.7143    2.2072 C.ar      1 <0>        -0.0997
     41 C29         4.2000    2.6212    1.4015 C.ar      1 <0>        -0.1273
     42 C30         5.4003    2.2746    0.8083 C.ar      1 <0>        -0.1005
     43 C31         5.9430    1.0234    1.0238 C.ar      1 <0>        -0.1018
     44 H6         -0.6053    0.5488    4.8225 H         1 <0>         0.0594
     45 H7         -1.2883    0.8014    6.4467 H         1 <0>         0.0598
     46 H8          0.2509    1.5748    5.9983 H         1 <0>         0.0598
     47 H9          0.6365   -0.4029    7.4434 H         1 <0>         0.0711
     48 H10        -0.2197   -1.4290    6.2677 H         1 <0>         0.0719
     49 H11         0.8296   -0.0133    3.7394 H         1 <0>         0.0797
     50 H12         2.2771   -1.0303    3.5423 H         1 <0>         0.0664
     51 H13         0.7224   -1.7723    3.9902 H         1 <0>         0.0640
     52 H14         2.7969    0.6827    6.8140 H         1 <0>         0.0619
     53 H15         3.4799    0.4300    5.1898 H         1 <0>         0.0669
     54 H16         2.0138    1.4183    5.3949 H         1 <0>         0.0755
     55 H17         4.7854   -5.2828    4.9464 H         1 <0>         0.0980
     56 H18         3.4545   -4.3953    4.1644 H         1 <0>         0.0817
     57 H19         5.9877   -4.2259    6.9168 H         1 <0>         0.0987
     58 H20         7.3704   -0.5491    7.2283 H         1 <0>         0.0632
     59 H21         8.7350   -1.3968    7.9933 H         1 <0>         0.0704
     60 H22         8.2956   -3.3895    6.5696 H         1 <0>         0.0738
     61 H23         8.5896   -1.9458    5.5695 H         1 <0>         0.0727
     62 H24         7.4558   -4.1790    8.0574 H         1 <0>         0.0612
     63 H25         8.3255   -3.4080    9.4055 H         1 <0>         0.0551
     64 H26         6.6670   -4.0085    9.6439 H         1 <0>         0.0571
     65 H27         3.5248   -3.2458    8.3465 H         1 <0>         0.0905
     66 H28         4.9082   -3.9559    9.2125 H         1 <0>         0.0671
     67 H29         5.1639   -1.8642   10.5194 H         1 <0>         0.0881
     68 H30         3.7804   -1.1541    9.6534 H         1 <0>         0.0745
     69 H31         3.6575   -3.7114   11.3134 H         1 <0>         0.0770
     70 H32         4.0687   -1.7325   12.7360 H         1 <0>         0.0973
     71 H33         2.7300   -0.8701   11.9397 H         1 <0>         0.0899
     72 H34         0.0874   -3.2507   13.1313 H         1 <0>         0.1061
     73 H35         0.3202   -1.6826   12.3156 H         1 <0>         0.1164
     74 H36         1.3315   -2.0028   15.0215 H         1 <0>         0.3853
     75 H37         4.7176   -4.6070    1.9891 H         1 <0>         0.0743
     76 H38         6.3737   -3.9665    1.8660 H         1 <0>         0.0759
     77 H39         6.0549   -5.4309    2.8264 H         1 <0>         0.0698
     78 H40         3.8661   -2.3754    2.8955 H         1 <0>         0.0889
     79 H41         4.7850   -1.5851    4.1991 H         1 <0>         0.1199
     80 H42         3.5498   -0.2488    3.0512 H         1 <0>         0.1290
     81 H43         2.5982    1.9881    2.6683 H         1 <0>         0.1226
     82 H44         3.7803    3.6022    1.2351 H         1 <0>         0.1233
     83 H45         5.9161    2.9852    0.1795 H         1 <0>         0.1264
     84 H46         6.8829    0.7552    0.5644 H         1 <0>         0.1260
@<TRIPOS>BOND
     1    1    2 1
     2    1   44 1
     3    1   45 1
     4    1   46 1
     5    2    3 1
     6    2   47 1
     7    2   48 1
     8    3    4 1
     9    3    5 1
    10    3    6 1
    11    4   49 1
    12    4   50 1
    13    4   51 1
    14    5   52 1
    15    5   53 1
    16    5   54 1
    17    6    7 2
    18    6    8 1
    19    8    9 1
    20    9   10 1
    21    9   16 1
    22    9   11 1
    23   11   12 1
    24   11   55 1
    25   11   56 1
    26   12   13 1
    27   12   35 1
    28   12   36 1
    29   13   14 1
    30   14   15 1
    31   14   22 1
    32   14   16 1
    33   16   17 1
    34   16   57 1
    35   17   18 1
    36   17   19 1
    37   17   24 1
    38   19   20 1
    39   19   21 1
    40   19   23 1
    41   21   22 1
    42   21   58 1
    43   21   59 1
    44   22   60 1
    45   22   61 1
    46   23   62 1
    47   23   63 1
    48   23   64 1
    49   24   25 1
    50   24   65 1
    51   24   66 1
    52   25   26 1
    53   25   67 1
    54   25   68 1
    55   26   33 1
    56   26   27 1
    57   26   69 1
    58   27   28 1
    59   27   70 1
    60   27   71 1
    61   28   29 1
    62   28   30 1
    63   28   34 1
    64   30   31 1
    65   30   72 1
    66   30   73 1
    67   31   32 2
    68   31   33 1
    69   34   74 1
    70   35   75 1
    71   35   76 1
    72   35   77 1
    73   36   37 1
    74   36   78 1
    75   36   79 1
    76   37   38 1
    77   38   43 ar
    78   38   39 ar
    79   39   40 ar
    80   39   80 1
    81   40   41 ar
    82   40   81 1
    83   41   42 ar
    84   41   82 1
    85   42   43 ar
    86   42   83 1
    87   43   84 1
@<TRIPOS>MOLECULE
CHEMBL392897
   69    71     0     0     0
SMALL
USER_CHARGES

@<TRIPOS>ATOM
      1 C1         -0.0242    1.4884    0.0521 C.3       1 <0>        -0.1727
      2 C2         -0.0001   -0.0410    0.0189 C.3       1 <0>         0.0944
      3 N1          0.6854   -0.4924   -1.1946 N.pl3     1 <0>        -0.4072
      4 C3          0.0848   -0.8342   -2.3530 C.2       1 <0>         0.0784
      5 C4          1.0466   -1.2005   -3.2509 C.2       1 <0>        -0.1418
      6 C5          2.2933   -1.0758   -2.6081 C.2       1 <0>        -0.0872
      7 C6          2.0475   -0.6309   -1.3393 C.2       1 <0>        -0.0522
      8 C7          3.0571   -0.3530   -0.3117 C.2       1 <0>         0.6022
      9 O1          3.5545    0.7547   -0.2313 O.2       1 <0>        -0.5185
     10 N2          3.4336   -1.3244    0.5433 N.am      1 <0>        -0.7175
     11 C8          4.3573   -1.0188    1.6385 C.3       1 <0>         0.1774
     12 C9          4.6151   -2.2676    2.4416 C.ar      1 <0>         0.0460
     13 C10         5.7255   -3.0478    2.1703 C.ar      1 <0>         0.0789
     14 N3          5.9517   -4.1425    2.8747 N.ar      1 <0>        -0.4385
     15 C11         5.1176   -4.4924    3.8383 C.ar      1 <0>         0.0878
     16 C12         4.0077   -3.7124    4.1094 C.ar      1 <0>         0.0528
     17 N4          3.7840   -2.6148    3.4082 N.ar      1 <0>        -0.4179
     18 C13         5.3754   -5.7412    4.6414 C.3       1 <0>        -0.1048
     19 C14         3.6439   -1.3712   -3.2078 C.3       1 <0>        -0.0845
     20 C15         0.8194   -1.6488   -4.6479 C.ar      1 <0>        -0.0077
     21 C16         0.1322   -2.8345   -4.8980 C.ar      1 <0>        -0.0819
     22 C17        -0.0768   -3.2475   -6.1981 C.ar      1 <0>        -0.1509
     23 C18         0.3959   -2.4851   -7.2536 C.ar      1 <0>         0.0933
     24 C19         1.0797   -1.3054   -7.0094 C.ar      1 <0>        -0.1510
     25 C20         1.2877   -0.8819   -5.7125 C.ar      1 <0>        -0.0780
     26 F1          0.1899   -2.8935   -8.5248 F         1 <0>        -0.1419
     27 C21        -1.3994   -0.8150   -2.6130 C.3       1 <0>        -0.0523
     28 C22        -1.8047    0.5574   -3.1543 C.3       1 <0>        -0.1451
     29 C23        -3.3116    0.5769   -3.4183 C.3       1 <0>         0.1142
     30 H1         -3.5749   -0.2470   -4.0816 H         1 <0>         0.0979
     31 C24        -3.6972    1.9038   -4.0753 C.3       1 <0>        -0.1864
     32 C25        -5.1796    1.8743   -4.4526 C.3       1 <0>         0.1377
     33 H2         -5.3777    1.0050   -5.0798 H         1 <0>         0.0927
     34 C26        -5.5360    3.1489   -5.2202 C.3       1 <0>        -0.2195
     35 C27        -6.9628    3.0652   -5.6980 C.2       1 <0>         0.4907
     36 O2         -7.6326    2.0776   -5.4478 O.co2     1 <0>        -0.6814
     37 O3         -7.4474    3.9850   -6.3349 O.co2     1 <0>        -0.7133
     38 O4         -5.9718    1.7957   -3.2658 O.3       1 <0>        -0.5281
     39 O5         -4.0137    0.4359   -2.1817 O.3       1 <0>        -0.5421
     40 H3          0.9976    1.8680    0.0495 H         1 <0>         0.0677
     41 H4         -0.5530    1.8626   -0.8245 H         1 <0>         0.0675
     42 H5         -0.5342    1.8243    0.9549 H         1 <0>         0.0771
     43 H6          0.5287   -0.4152    0.8955 H         1 <0>         0.0860
     44 H7         -1.0219   -0.4206    0.0215 H         1 <0>         0.1000
     45 H8          3.0929   -2.2260    0.4335 H         1 <0>         0.4047
     46 H9          5.2975   -0.6498    1.2286 H         1 <0>         0.0932
     47 H10         3.9179   -0.2569    2.2825 H         1 <0>         0.0905
     48 H11         6.4069   -2.7621    1.3826 H         1 <0>         0.1731
     49 H12         3.3261   -3.9984    4.8969 H         1 <0>         0.1730
     50 H13         5.9871   -5.4952    5.5093 H         1 <0>         0.0856
     51 H14         4.4263   -6.1621    4.9733 H         1 <0>         0.0828
     52 H15         5.8992   -6.4696    4.0223 H         1 <0>         0.0827
     53 H16         4.0388   -0.4694   -3.6757 H         1 <0>         0.0682
     54 H17         4.3251   -1.7020   -2.4238 H         1 <0>         0.0565
     55 H18         3.5446   -2.1560   -3.9578 H         1 <0>         0.0686
     56 H19        -0.2361   -3.4299   -4.0756 H         1 <0>         0.1306
     57 H20        -0.6095   -4.1667   -6.3928 H         1 <0>         0.1345
     58 H21         1.4467   -0.7139   -7.8352 H         1 <0>         0.1343
     59 H22         1.8170    0.0402   -5.5231 H         1 <0>         0.1310
     60 H23        -1.6500   -1.5828   -3.3450 H         1 <0>         0.0892
     61 H24        -1.9337   -1.0112   -1.6834 H         1 <0>         0.0793
     62 H25        -1.5541    1.3252   -2.4223 H         1 <0>         0.0627
     63 H26        -1.2704    0.7536   -4.0839 H         1 <0>         0.0752
     64 H27        -3.5162    2.7210   -3.3771 H         1 <0>         0.0613
     65 H28        -3.0968    2.0529   -4.9727 H         1 <0>         0.0739
     66 H29        -5.4226    4.0119   -4.5641 H         1 <0>         0.0558
     67 H30        -4.8713    3.2545   -6.0776 H         1 <0>         0.0610
     68 H31        -5.8464    2.5385   -2.6594 H         1 <0>         0.3492
     69 H32        -3.8272    1.1361   -1.5414 H         1 <0>         0.3629
@<TRIPOS>BOND
     1    1    2 1
     2    1   40 1
     3    1   41 1
     4    1   42 1
     5    2    3 1
     6    2   43 1
     7    2   44 1
     8    3    7 1
     9    3    4 1
    10    4    5 2
    11    4   27 1
    12    5    6 1
    13    5   20 1
    14    6    7 2
    15    6   19 1
    16    7    8 1
    17    8    9 2
    18    8   10 am
    19   10   11 1
    20   10   45 1
    21   11   12 1
    22   11   46 1
    23   11   47 1
    24   12   17 ar
    25   12   13 ar
    26   13   14 ar
    27   13   48 1
    28   14   15 ar
    29   15   16 ar
    30   15   18 1
    31   16   17 ar
    32   16   49 1
    33   18   50 1
    34   18   51 1
    35   18   52 1
    36   19   53 1
    37   19   54 1
    38   19   55 1
    39   20   25 ar
    40   20   21 ar
    41   21   22 ar
    42   21   56 1
    43   22   23 ar
    44   22   57 1
    45   23   24 ar
    46   23   26 1
    47   24   25 ar
    48   24   58 1
    49   25   59 1
    50   27   28 1
    51   27   60 1
    52   27   61 1
    53   28   29 1
    54   28   62 1
    55   28   63 1
    56   29   30 1
    57   29   31 1
    58   29   39 1
    59   31   32 1
    60   31   64 1
    61   31   65 1
    62   32   33 1
    63   32   34 1
    64   32   38 1
    65   34   35 1
    66   34   66 1
    67   34   67 1
    68   35   36 2
    69   35   37 1
    70   38   68 1
    71   39   69 1
@<TRIPOS>MOLECULE
CHEMBL154868
   61    63     0     0     0
SMALL
USER_CHARGES

@<TRIPOS>ATOM
      1 C1         -0.0187    1.5258    0.0104 C.3       1 <0>        -0.1464
      2 C2          0.0021   -0.0041    0.0020 C.3       1 <0>        -0.0187
      3 C3          0.7182   -0.4975   -1.2568 C.3       1 <0>        -0.1454
      4 C4          0.7309   -0.5033    1.2229 C.2       1 <0>        -0.1261
      5 C5          0.2661   -1.3066    2.2242 C.2       1 <0>        -0.0749
      6 C6          1.1788   -1.6426    3.2926 C.2       1 <0>        -0.0759
      7 C7          2.4417   -1.1363    3.2307 C.2       1 <0>        -0.1202
      8 S1          2.4170   -0.1982    1.7150 S.3       1 <0>         0.0412
      9 C8          3.5796   -1.3266    4.2003 C.3       1 <0>        -0.0103
     10 C9          4.0735    0.0428    4.7108 C.3       1 <0>        -0.1191
     11 C10         5.6088   -0.1263    4.8269 C.3       1 <0>        -0.1248
     12 C11         5.9512   -0.9961    3.5919 C.3       1 <0>        -0.1248
     13 C12         4.7734   -1.9871    3.4889 C.3       1 <0>        -0.1193
     14 C13         0.7548   -2.5090    4.4188 C.ar      1 <0>        -0.0307
     15 C14         0.6868   -1.9919    5.7115 C.ar      1 <0>        -0.0774
     16 C15         0.2917   -2.8019    6.7563 C.ar      1 <0>        -0.1511
     17 C16        -0.0367   -4.1273    6.5222 C.ar      1 <0>         0.0990
     18 C17         0.0298   -4.6457    5.2392 C.ar      1 <0>        -0.1490
     19 C18         0.4174   -3.8415    4.1871 C.ar      1 <0>        -0.0746
     20 F1         -0.4226   -4.9168    7.5484 F         1 <0>        -0.1396
     21 C19        -1.1207   -1.8138    2.2157 C.2       1 <0>        -0.1040
     22 C20        -2.1320   -0.9767    2.0240 C.2       1 <0>        -0.1700
     23 C21        -3.5473   -1.4943    2.0153 C.3       1 <0>         0.1421
     24 H1         -3.9780   -1.3579    1.0234 H         1 <0>         0.1079
     25 C22        -4.3785   -0.7234    3.0427 C.3       1 <0>        -0.1801
     26 C23        -5.8414   -1.1614    2.9473 C.3       1 <0>         0.1375
     27 H2         -6.1919   -1.0366    1.9228 H         1 <0>         0.0934
     28 C24        -6.6928   -0.3039    3.8857 C.3       1 <0>        -0.2190
     29 C25        -8.1477   -0.6510    3.7019 C.2       1 <0>         0.4907
     30 O1         -8.4734   -1.5052    2.8952 O.co2     1 <0>        -0.6810
     31 O2         -8.9990   -0.0777    4.3600 O.co2     1 <0>        -0.7132
     32 O3         -5.9529   -2.5351    3.3249 O.3       1 <0>        -0.5280
     33 O4         -3.5482   -2.8841    2.3480 O.3       1 <0>        -0.5382
     34 H3          1.0039    1.9031    0.0027 H         1 <0>         0.0566
     35 H4         -0.5459    1.8868   -0.8726 H         1 <0>         0.0653
     36 H5         -0.5289    1.8773    0.9072 H         1 <0>         0.0591
     37 H6         -1.0205   -0.3814    0.0098 H         1 <0>         0.0994
     38 H7          1.7408   -0.1202   -1.2645 H         1 <0>         0.0556
     39 H8          0.7330   -1.5874   -1.2628 H         1 <0>         0.0591
     40 H9          0.1910   -0.1364   -2.1398 H         1 <0>         0.0642
     41 H10         3.2563   -1.9439    5.0385 H         1 <0>         0.0939
     42 H11         3.8292    0.8276    3.9949 H         1 <0>         0.0712
     43 H12         3.6395    0.2658    5.6855 H         1 <0>         0.0701
     44 H13         6.1093    0.8403    4.7693 H         1 <0>         0.0683
     45 H14         5.8717   -0.6443    5.7491 H         1 <0>         0.0687
     46 H15         6.0101   -0.3791    2.6952 H         1 <0>         0.0661
     47 H16         6.8874   -1.5313    3.7500 H         1 <0>         0.0667
     48 H17         5.0301   -2.9246    3.9823 H         1 <0>         0.0693
     49 H18         4.5298   -2.1701    2.4423 H         1 <0>         0.0691
     50 H19         0.9433   -0.9590    5.8950 H         1 <0>         0.1303
     51 H20         0.2387   -2.4021    7.7582 H         1 <0>         0.1358
     52 H21        -0.2265   -5.6797    5.0615 H         1 <0>         0.1375
     53 H22         0.4643   -4.2452    3.1865 H         1 <0>         0.1323
     54 H23        -1.3117   -2.8661    2.3656 H         1 <0>         0.1267
     55 H24        -1.9409    0.0756    1.8741 H         1 <0>         0.1151
     56 H25        -4.0018   -0.9309    4.0443 H         1 <0>         0.0629
     57 H26        -4.3054    0.3453    2.8411 H         1 <0>         0.0747
     58 H27        -6.4011   -0.4959    4.9183 H         1 <0>         0.0560
     59 H28        -6.5387    0.7501    3.6547 H         1 <0>         0.0609
     60 H29        -5.6579   -2.7203    4.2269 H         1 <0>         0.3501
     61 H30        -3.1780   -3.0802    3.2195 H         1 <0>         0.3654
@<TRIPOS>BOND
     1    1    2 1
     2    1   34 1
     3    1   35 1
     4    1   36 1
     5    2    3 1
     6    2    4 1
     7    2   37 1
     8    3   38 1
     9    3   39 1
    10    3   40 1
    11    4    8 1
    12    4    5 2
    13    5    6 1
    14    5   21 1
    15    6    7 2
    16    6   14 1
    17    7    8 1
    18    7    9 1
    19    9   13 1
    20    9   10 1
    21    9   41 1
    22   10   11 1
    23   10   42 1
    24   10   43 1
    25   11   12 1
    26   11   44 1
    27   11   45 1
    28   12   13 1
    29   12   46 1
    30   12   47 1
    31   13   48 1
    32   13   49 1
    33   14   19 ar
    34   14   15 ar
    35   15   16 ar
    36   15   50 1
    37   16   17 ar
    38   16   51 1
    39   17   18 ar
    40   17   20 1
    41   18   19 ar
    42   18   52 1
    43   19   53 1
    44   21   22 2
    45   21   54 1
    46   22   23 1
    47   22   55 1
    48   23   24 1
    49   23   25 1
    50   23   33 1
    51   25   26 1
    52   25   56 1
    53   25   57 1
    54   26   27 1
    55   26   28 1
    56   26   32 1
    57   28   29 1
    58   28   58 1
    59   28   59 1
    60   29   30 2
    61   29   31 1
    62   32   60 1
    63   33   61 1
@<TRIPOS>MOLECULE
CHEMBL488471
   78    81     0     0     0
SMALL
USER_CHARGES

@<TRIPOS>ATOM
      1 C1         -0.0187    1.5258    0.0104 C.3       1 <0>        -0.1477
      2 C2          0.0021   -0.0041    0.0020 C.3       1 <0>        -0.0597
      3 C3         -1.4117   -0.5257    0.0127 C.2       1 <0>         0.0819
      4 C4         -2.1543   -0.8032    1.1287 C.2       1 <0>        -0.2253
      5 C5         -3.4492   -1.2793    0.6417 C.2       1 <0>        -0.1237
      6 C6         -3.3887   -1.2589   -0.7015 C.2       1 <0>         0.0249
      7 N1         -2.1613   -0.7925   -1.0743 N.pl3     1 <0>        -0.4274
      8 C7         -1.7203   -0.6118   -2.4596 C.3       1 <0>         0.1000
      9 C8         -1.0632   -1.9005   -2.9579 C.3       1 <0>        -0.1659
     10 C9         -0.6027   -1.7117   -4.4047 C.3       1 <0>         0.1167
     11 H1         -1.4461   -1.3896   -5.0154 H         1 <0>         0.0996
     12 C10        -0.0591   -3.0363   -4.9438 C.3       1 <0>        -0.1857
     13 C11         0.2855   -2.8806   -6.4264 C.3       1 <0>         0.1377
     14 H2         -0.5890   -2.5177   -6.9664 H         1 <0>         0.0930
     15 C12         0.7108   -4.2354   -6.9962 C.3       1 <0>        -0.2194
     16 C13         0.9317   -4.1086   -8.4815 C.2       1 <0>         0.4903
     17 O1          0.7645   -3.0343   -9.0332 O.co2     1 <0>        -0.6810
     18 O2          1.2777   -5.0804   -9.1315 O.co2     1 <0>        -0.7125
     19 O3          1.3565   -1.9457   -6.5709 O.3       1 <0>        -0.5279
     20 O4          0.4255   -0.7204   -4.4517 O.3       1 <0>        -0.5411
     21 C14        -4.4976   -1.6913   -1.6296 C.3       1 <0>        -0.0516
     22 C15        -5.8169   -1.0671   -1.1685 C.3       1 <0>        -0.1139
     23 C16        -6.4993   -1.9870   -0.1597 C.3       1 <0>        -0.1192
     24 C17        -5.4621   -2.7196    0.6878 C.3       1 <0>        -0.1216
     25 C18        -4.6305   -1.7013    1.4733 C.3       1 <0>        -0.0432
     26 C19        -1.7353   -0.6536    2.5325 C.2       1 <0>         0.6029
     27 O5         -1.9269    0.3964    3.1157 O.2       1 <0>        -0.5386
     28 N2         -1.1394   -1.6801    3.1710 N.am      1 <0>        -0.7229
     29 C20        -0.7226   -1.5312    4.5675 C.3       1 <0>         0.1606
     30 C21        -0.0877   -2.8131    5.0416 C.ar      1 <0>        -0.1053
     31 C22        -0.8705   -3.7985    5.6156 C.ar      1 <0>        -0.0959
     32 C23        -0.2944   -4.9745    6.0516 C.ar      1 <0>        -0.1119
     33 C24         1.0785   -5.1681    5.9126 C.ar      1 <0>        -0.0380
     34 C25         1.8622   -4.1721    5.3337 C.ar      1 <0>        -0.1116
     35 C26         1.2747   -3.0023    4.8961 C.ar      1 <0>        -0.0959
     36 C27         1.7036   -6.4301    6.3799 C.ar      1 <0>        -0.0479
     37 C28         0.9191   -7.4283    6.9540 C.ar      1 <0>        -0.1100
     38 C29         1.5057   -8.6004    7.3865 C.ar      1 <0>        -0.1181
     39 C30         2.8699   -8.7849    7.2512 C.ar      1 <0>        -0.1183
     40 C31         3.6535   -7.7971    6.6825 C.ar      1 <0>        -0.1176
     41 C32         3.0765   -6.6237    6.2409 C.ar      1 <0>        -0.1097
     42 H3          1.0039    1.9031    0.0027 H         1 <0>         0.0616
     43 H4         -0.5459    1.8868   -0.8726 H         1 <0>         0.0543
     44 H5         -0.5289    1.8773    0.9072 H         1 <0>         0.0632
     45 H6          0.5123   -0.3556   -0.8948 H         1 <0>         0.0747
     46 H7          0.5293   -0.3651    0.8851 H         1 <0>         0.0804
     47 H8         -2.5801   -0.3762   -3.0868 H         1 <0>         0.0914
     48 H9         -1.0005    0.2053   -2.5081 H         1 <0>         0.0988
     49 H10        -0.2034   -2.1360   -2.3307 H         1 <0>         0.0708
     50 H11        -1.7830   -2.7176   -2.9094 H         1 <0>         0.0777
     51 H12         0.8376   -3.3136   -4.3896 H         1 <0>         0.0632
     52 H13        -0.8139   -3.8138   -4.8260 H         1 <0>         0.0744
     53 H14         1.6358   -4.5567   -6.5174 H         1 <0>         0.0563
     54 H15        -0.0710   -4.9709   -6.8066 H         1 <0>         0.0610
     55 H16         2.1689   -2.2047   -6.1148 H         1 <0>         0.3502
     56 H17         1.2089   -0.9411   -3.9294 H         1 <0>         0.3661
     57 H18        -4.2733   -1.3600   -2.6435 H         1 <0>         0.0683
     58 H19        -4.5836   -2.7778   -1.6122 H         1 <0>         0.0844
     59 H20        -5.6178   -0.1022   -0.7021 H         1 <0>         0.0666
     60 H21        -6.4706   -0.9246   -2.0289 H         1 <0>         0.0667
     61 H22        -7.1407   -1.3931    0.4915 H         1 <0>         0.0619
     62 H23        -7.1077   -2.7171   -0.6934 H         1 <0>         0.0605
     63 H24        -5.9686   -3.3887    1.3834 H         1 <0>         0.0615
     64 H25        -4.8067   -3.2999    0.0383 H         1 <0>         0.0704
     65 H26        -4.2798   -2.1552    2.4002 H         1 <0>         0.0623
     66 H27        -5.2439   -0.8300    1.7031 H         1 <0>         0.0689
     67 H28        -0.9866   -2.5175    2.7058 H         1 <0>         0.4028
     68 H29        -0.0015   -0.7177    4.6467 H         1 <0>         0.0758
     69 H30        -1.5927   -1.3068    5.1845 H         1 <0>         0.0756
     70 H31        -1.9345   -3.6473    5.7232 H         1 <0>         0.1268
     71 H32        -0.9065   -5.7431    6.4999 H         1 <0>         0.1269
     72 H33         2.9268   -4.3168    5.2239 H         1 <0>         0.1273
     73 H34         1.8805   -2.2316    4.4429 H         1 <0>         0.1271
     74 H35        -0.1461   -7.2850    7.0607 H         1 <0>         0.1254
     75 H36         0.8985   -9.3747    7.8316 H         1 <0>         0.1244
     76 H37         3.3248   -9.7034    7.5913 H         1 <0>         0.1229
     77 H38         4.7182   -7.9462    6.5796 H         1 <0>         0.1248
     78 H39         3.6886   -5.8549    5.7929 H         1 <0>         0.1258
@<TRIPOS>BOND
     1    1    2 1
     2    1   42 1
     3    1   43 1
     4    1   44 1
     5    2    3 1
     6    2   45 1
     7    2   46 1
     8    3    7 1
     9    3    4 2
    10    4    5 1
    11    4   26 1
    12    5   25 1
    13    5    6 2
    14    6    7 1
    15    6   21 1
    16    7    8 1
    17    8    9 1
    18    8   47 1
    19    8   48 1
    20    9   10 1
    21    9   49 1
    22    9   50 1
    23   10   11 1
    24   10   12 1
    25   10   20 1
    26   12   13 1
    27   12   51 1
    28   12   52 1
    29   13   14 1
    30   13   15 1
    31   13   19 1
    32   15   16 1
    33   15   53 1
    34   15   54 1
    35   16   17 2
    36   16   18 1
    37   19   55 1
    38   20   56 1
    39   21   22 1
    40   21   57 1
    41   21   58 1
    42   22   23 1
    43   22   59 1
    44   22   60 1
    45   23   24 1
    46   23   61 1
    47   23   62 1
    48   24   25 1
    49   24   63 1
    50   24   64 1
    51   25   65 1
    52   25   66 1
    53   26   27 2
    54   26   28 am
    55   28   29 1
    56   28   67 1
    57   29   30 1
    58   29   68 1
    59   29   69 1
    60   30   35 ar
    61   30   31 ar
    62   31   32 ar
    63   31   70 1
    64   32   33 ar
    65   32   71 1
    66   33   34 ar
    67   33   36 1
    68   34   35 ar
    69   34   72 1
    70   35   73 1
    71   36   41 ar
    72   36   37 ar
    73   37   38 ar
    74   37   74 1
    75   38   39 ar
    76   38   75 1
    77   39   40 ar
    78   39   76 1
    79   40   41 ar
    80   40   77 1
    81   41   78 1
@<TRIPOS>MOLECULE
CHEMBL318070
   62    63     0     0     0
SMALL
USER_CHARGES

@<TRIPOS>ATOM
      1 C1         -0.0187    1.5258    0.0104 C.3       1 <0>        -0.1394
      2 C2          0.0021   -0.0041    0.0020 C.3       1 <0>        -0.0445
      3 C3          0.7421   -0.5109    1.2415 C.3       1 <0>        -0.1389
      4 C4         -1.4117   -0.5257    0.0127 C.ar      1 <0>         0.1534
      5 C5         -1.8576   -1.3319   -1.0337 C.ar      1 <0>        -0.0880
      6 C6         -3.1839   -1.8095   -1.0036 C.ar      1 <0>         0.0059
      7 C7         -3.9878   -1.4482    0.0798 C.ar      1 <0>        -0.1603
      8 C8         -3.4601   -0.6455    1.0703 C.ar      1 <0>         0.1419
      9 N1         -2.2117   -0.2198    1.0131 N.ar      1 <0>        -0.4685
     10 C9         -4.3228   -0.2524    2.2417 C.3       1 <0>        -0.0177
     11 C10        -4.4754   -1.4464    3.1861 C.3       1 <0>        -0.1373
     12 C11        -3.6673    0.9097    2.9906 C.3       1 <0>        -0.1260
     13 C12        -5.7016    0.1787    1.7377 C.3       1 <0>        -0.1415
     14 C13        -3.7095   -2.6692   -2.0897 C.ar      1 <0>        -0.0628
     15 C14        -3.5481   -2.2901   -3.4221 C.ar      1 <0>        -0.0577
     16 C15        -4.0392   -3.0938   -4.4298 C.ar      1 <0>        -0.1507
     17 C16        -4.6925   -4.2760   -4.1200 C.ar      1 <0>         0.1070
     18 C17        -4.8554   -4.6569   -2.7976 C.ar      1 <0>        -0.1542
     19 C18        -4.3623   -3.8629   -1.7832 C.ar      1 <0>        -0.0764
     20 F1         -5.1726   -5.0595   -5.1104 F         1 <0>        -0.1372
     21 C19        -0.9585   -1.6784   -2.1521 C.2       1 <0>        -0.1302
     22 C20        -0.8275   -2.9434   -2.5305 C.2       1 <0>        -0.1504
     23 C21         0.0904   -3.2971   -3.6722 C.3       1 <0>         0.1419
     24 C22         1.0985   -4.3505   -3.2085 C.3       1 <0>        -0.1808
     25 C23         1.9491   -4.8008   -4.3979 C.3       1 <0>         0.1379
     26 H1          1.2975   -5.1464   -5.2004 H         1 <0>         0.0931
     27 C24         2.8712   -5.9414   -3.9626 C.3       1 <0>        -0.2191
     28 C25         3.6199   -6.4670   -5.1603 C.2       1 <0>         0.4906
     29 O1          3.4331   -5.9749   -6.2600 O.co2     1 <0>        -0.6809
     30 O2          4.4122   -7.3844   -5.0295 O.co2     1 <0>        -0.7129
     31 O3          2.7365   -3.7028   -4.8632 O.3       1 <0>        -0.5277
     32 O4          0.7883   -2.1267   -4.1025 O.3       1 <0>        -0.5372
     33 H2          1.0039    1.9031    0.0027 H         1 <0>         0.0597
     34 H3         -0.5459    1.8868   -0.8726 H         1 <0>         0.0515
     35 H4         -0.5289    1.8773    0.9072 H         1 <0>         0.0636
     36 H5          0.5123   -0.3556   -0.8948 H         1 <0>         0.0880
     37 H6          0.7568   -1.6008    1.2356 H         1 <0>         0.0515
     38 H7          1.7647   -0.1336    1.2338 H         1 <0>         0.0598
     39 H8          0.2319   -0.1594    2.1383 H         1 <0>         0.0632
     40 H9         -5.0096   -1.7923    0.1413 H         1 <0>         0.1340
     41 H10        -3.4932   -1.7535    3.5452 H         1 <0>         0.0578
     42 H11        -5.0994   -1.1620    4.0334 H         1 <0>         0.0629
     43 H12        -4.9424   -2.2743    2.6526 H         1 <0>         0.0558
     44 H13        -3.5586    1.7603    2.3177 H         1 <0>         0.0547
     45 H14        -4.2913    1.1940    3.8378 H         1 <0>         0.0507
     46 H15        -2.6850    0.6025    3.3496 H         1 <0>         0.0651
     47 H16        -6.1686   -0.6492    1.2042 H         1 <0>         0.0581
     48 H17        -6.3256    0.4631    2.5849 H         1 <0>         0.0632
     49 H18        -5.5929    1.0293    1.0648 H         1 <0>         0.0572
     50 H19        -3.0396   -1.3686   -3.6644 H         1 <0>         0.1353
     51 H20        -3.9146   -2.8011   -5.4619 H         1 <0>         0.1399
     52 H21        -5.3656   -5.5789   -2.5610 H         1 <0>         0.1376
     53 H22        -4.4854   -4.1629   -0.7530 H         1 <0>         0.1322
     54 H23        -0.4074   -0.9023   -2.6623 H         1 <0>         0.1335
     55 H24        -1.3786   -3.7195   -2.0203 H         1 <0>         0.1129
     56 H25        -0.4963   -3.6953   -4.5000 H         1 <0>         0.1085
     57 H26         1.7441   -3.9227   -2.4414 H         1 <0>         0.0644
     58 H27         0.5653   -5.2078   -2.7979 H         1 <0>         0.0743
     59 H28         3.5819   -5.5721   -3.2233 H         1 <0>         0.0565
     60 H29         2.2760   -6.7432   -3.5257 H         1 <0>         0.0607
     61 H30         3.3413   -3.3435   -4.1997 H         1 <0>         0.3501
     62 H31         1.3321   -1.7181   -3.4153 H         1 <0>         0.3656
@<TRIPOS>BOND
     1    1    2 1
     2    1   33 1
     3    1   34 1
     4    1   35 1
     5    2    3 1
     6    2    4 1
     7    2   36 1
     8    3   37 1
     9    3   38 1
    10    3   39 1
    11    4    9 ar
    12    4    5 ar
    13    5    6 ar
    14    5   21 1
    15    6    7 ar
    16    6   14 1
    17    7    8 ar
    18    7   40 1
    19    8    9 ar
    20    8   10 1
    21   10   11 1
    22   10   12 1
    23   10   13 1
    24   11   41 1
    25   11   42 1
    26   11   43 1
    27   12   44 1
    28   12   45 1
    29   12   46 1
    30   13   47 1
    31   13   48 1
    32   13   49 1
    33   14   19 ar
    34   14   15 ar
    35   15   16 ar
    36   15   50 1
    37   16   17 ar
    38   16   51 1
    39   17   18 ar
    40   17   20 1
    41   18   19 ar
    42   18   52 1
    43   19   53 1
    44   21   22 2
    45   21   54 1
    46   22   23 1
    47   22   55 1
    48   23   24 1
    49   23   32 1
    50   23   56 1
    51   24   25 1
    52   24   57 1
    53   24   58 1
    54   25   26 1
    55   25   27 1
    56   25   31 1
    57   27   28 1
    58   27   59 1
    59   27   60 1
    60   28   29 2
    61   28   30 1
    62   31   61 1
    63   32   62 1
@<TRIPOS>MOLECULE
CHEMBL318070__1
   62    63     0     0     0
SMALL
USER_CHARGES

@<TRIPOS>ATOM
      1 C1         -0.0187    1.5258    0.0104 C.3       1 <0>        -0.1392
      2 C2          0.0021   -0.0041    0.0020 C.3       1 <0>        -0.0463
      3 C3          0.7421   -0.5109    1.2415 C.3       1 <0>        -0.1386
      4 C4         -1.4117   -0.5257    0.0127 C.ar      1 <0>         0.1555
      5 C5         -1.8576   -1.3319   -1.0337 C.ar      1 <0>        -0.0922
      6 C6         -3.1839   -1.8095   -1.0036 C.ar      1 <0>         0.0082
      7 C7         -3.9878   -1.4482    0.0798 C.ar      1 <0>        -0.1611
      8 C8         -3.4601   -0.6455    1.0703 C.ar      1 <0>         0.1432
      9 N1         -2.2117   -0.2198    1.0131 N.ar      1 <0>        -0.4688
     10 C9         -4.3228   -0.2524    2.2417 C.3       1 <0>        -0.0179
     11 C10        -4.4754   -1.4464    3.1861 C.3       1 <0>        -0.1373
     12 C11        -3.6673    0.9097    2.9906 C.3       1 <0>        -0.1261
     13 C12        -5.7016    0.1787    1.7377 C.3       1 <0>        -0.1415
     14 C13        -3.7095   -2.6692   -2.0897 C.ar      1 <0>        -0.0643
     15 C14        -3.5481   -2.2901   -3.4221 C.ar      1 <0>        -0.0540
     16 C15        -4.0392   -3.0938   -4.4298 C.ar      1 <0>        -0.1410
     17 C16        -4.6925   -4.2760   -4.1200 C.ar      1 <0>         0.1057
     18 C17        -4.8554   -4.6569   -2.7976 C.ar      1 <0>        -0.1556
     19 C18        -4.3623   -3.8629   -1.7832 C.ar      1 <0>        -0.0782
     20 F1         -5.1726   -5.0595   -5.1104 F         1 <0>        -0.1378
     21 C19        -0.9585   -1.6784   -2.1521 C.2       1 <0>        -0.1186
     22 C20        -0.8275   -2.9434   -2.5305 C.2       1 <0>        -0.1480
     23 C21         0.0904   -3.2971   -3.6722 C.3       1 <0>         0.1408
     24 C22         1.1749   -4.2557   -3.1764 C.3       1 <0>        -0.1821
     25 C23         2.1781   -4.5168   -4.3018 C.3       1 <0>         0.1361
     26 H1          1.6489   -4.8779   -5.1837 H         1 <0>         0.1025
     27 C24         3.1909   -5.5699   -3.8480 C.3       1 <0>        -0.2184
     28 C25         4.1033   -5.9169   -4.9961 C.2       1 <0>         0.4906
     29 O1          3.9570   -5.3724   -6.0771 O.co2     1 <0>        -0.6805
     30 O2          4.9878   -6.7422   -4.8440 O.co2     1 <0>        -0.7129
     31 O3          2.8627   -3.3037   -4.6206 O.3       1 <0>        -0.5412
     32 O4         -0.6625   -3.9260   -4.7113 O.3       1 <0>        -0.5445
     33 H2          1.0039    1.9031    0.0027 H         1 <0>         0.0601
     34 H3         -0.5459    1.8868   -0.8726 H         1 <0>         0.0512
     35 H4         -0.5289    1.8773    0.9072 H         1 <0>         0.0638
     36 H5          0.5123   -0.3556   -0.8948 H         1 <0>         0.0889
     37 H6          0.7568   -1.6008    1.2356 H         1 <0>         0.0517
     38 H7          1.7647   -0.1336    1.2338 H         1 <0>         0.0602
     39 H8          0.2319   -0.1594    2.1383 H         1 <0>         0.0632
     40 H9         -5.0096   -1.7923    0.1413 H         1 <0>         0.1343
     41 H10        -3.4932   -1.7535    3.5452 H         1 <0>         0.0579
     42 H11        -5.0994   -1.1620    4.0334 H         1 <0>         0.0630
     43 H12        -4.9424   -2.2743    2.6526 H         1 <0>         0.0558
     44 H13        -3.5586    1.7603    2.3177 H         1 <0>         0.0548
     45 H14        -4.2913    1.1940    3.8378 H         1 <0>         0.0508
     46 H15        -2.6850    0.6025    3.3496 H         1 <0>         0.0653
     47 H16        -6.1686   -0.6492    1.2042 H         1 <0>         0.0581
     48 H17        -6.3256    0.4631    2.5849 H         1 <0>         0.0633
     49 H18        -5.5929    1.0293    1.0648 H         1 <0>         0.0572
     50 H19        -3.0396   -1.3686   -3.6644 H         1 <0>         0.1330
     51 H20        -3.9146   -2.8011   -5.4619 H         1 <0>         0.1398
     52 H21        -5.3656   -5.5789   -2.5610 H         1 <0>         0.1365
     53 H22        -4.4854   -4.1629   -0.7530 H         1 <0>         0.1311
     54 H23        -0.4074   -0.9023   -2.6623 H         1 <0>         0.1271
     55 H24        -1.3786   -3.7195   -2.0203 H         1 <0>         0.1095
     56 H25         0.5559   -2.3904   -4.0585 H         1 <0>         0.1093
     57 H26         1.6911   -3.8115   -2.3254 H         1 <0>         0.0692
     58 H27         0.7167   -5.1969   -2.8726 H         1 <0>         0.0691
     59 H28         3.7812   -5.1740   -3.0217 H         1 <0>         0.0564
     60 H29         2.6623   -6.4652   -3.5207 H         1 <0>         0.0613
     61 H30         3.3564   -2.9245   -3.8806 H         1 <0>         0.3536
     62 H31        -1.1052   -4.7411   -4.4381 H         1 <0>         0.3679
@<TRIPOS>BOND
     1    1    2 1
     2    1   33 1
     3    1   34 1
     4    1   35 1
     5    2    3 1
     6    2    4 1
     7    2   36 1
     8    3   37 1
     9    3   38 1
    10    3   39 1
    11    4    9 ar
    12    4    5 ar
    13    5    6 ar
    14    5   21 1
    15    6    7 ar
    16    6   14 1
    17    7    8 ar
    18    7   40 1
    19    8    9 ar
    20    8   10 1
    21   10   11 1
    22   10   12 1
    23   10   13 1
    24   11   41 1
    25   11   42 1
    26   11   43 1
    27   12   44 1
    28   12   45 1
    29   12   46 1
    30   13   47 1
    31   13   48 1
    32   13   49 1
    33   14   19 ar
    34   14   15 ar
    35   15   16 ar
    36   15   50 1
    37   16   17 ar
    38   16   51 1
    39   17   18 ar
    40   17   20 1
    41   18   19 ar
    42   18   52 1
    43   19   53 1
    44   21   22 2
    45   21   54 1
    46   22   23 1
    47   22   55 1
    48   23   24 1
    49   23   32 1
    50   23   56 1
    51   24   25 1
    52   24   57 1
    53   24   58 1
    54   25   26 1
    55   25   27 1
    56   25   31 1
    57   27   28 1
    58   27   59 1
    59   27   60 1
    60   28   29 2
    61   28   30 1
    62   31   61 1
    63   32   62 1
@<TRIPOS>MOLECULE
CHEMBL468205
   61    63     0     0     0
SMALL
USER_CHARGES

@<TRIPOS>ATOM
      1 C1         -0.0187    1.5258    0.0104 C.3       1 <0>        -0.1409
      2 C2          0.0021   -0.0041    0.0020 C.3       1 <0>        -0.0464
      3 C3          0.7421   -0.5109    1.2415 C.3       1 <0>        -0.1405
      4 C4         -1.4117   -0.5257    0.0127 C.ar      1 <0>         0.2405
      5 C5         -1.8760   -1.3354   -1.0281 C.ar      1 <0>        -0.1856
      6 C6         -3.2070   -1.7972   -0.9690 C.ar      1 <0>         0.2630
      7 N1         -3.9619   -1.4456    0.0682 N.ar      1 <0>        -0.5415
      8 C7         -3.4757   -0.6763    1.0294 C.ar      1 <0>         0.5712
      9 N2         -2.2275   -0.2285    1.0085 N.ar      1 <0>        -0.5515
     10 N3         -4.2938   -0.3329    2.0920 N.pl3     1 <0>        -0.5996
     11 C8         -5.6141   -0.7984    2.1384 C.2       1 <0>         0.3162
     12 C9         -6.2329   -1.6207    1.1829 C.2       1 <0>        -0.2686
     13 C10        -7.5032   -1.8450    1.5890 C.2       1 <0>         0.0584
     14 N4         -7.6863   -1.1921    2.7559 N.pl3     1 <0>        -0.3744
     15 N5         -6.4874   -0.5469    3.0851 N.2       1 <0>        -0.3320
     16 C11        -8.9216   -1.1667    3.5432 C.3       1 <0>         0.1066
     17 C12        -3.7547   -2.6575   -2.0426 C.ar      1 <0>        -0.0718
     18 C13        -3.3518   -2.4686   -3.3647 C.ar      1 <0>        -0.0476
     19 C14        -3.8647   -3.2725   -4.3611 C.ar      1 <0>        -0.1578
     20 C15        -4.7791   -4.2667   -4.0506 C.ar      1 <0>         0.1200
     21 C16        -5.1825   -4.4583   -2.7385 C.ar      1 <0>        -0.1630
     22 C17        -4.6709   -3.6633   -1.7343 C.ar      1 <0>        -0.0488
     23 F1         -5.2791   -5.0513   -5.0301 F         1 <0>        -0.1355
     24 C18        -0.9974   -1.6966   -2.1576 C.2       1 <0>        -0.1220
     25 C19        -0.8838   -2.9651   -2.5307 C.2       1 <0>        -0.1535
     26 C20         0.0133   -3.3339   -3.6841 C.3       1 <0>         0.1416
     27 H1         -0.5895   -3.7313   -4.5006 H         1 <0>         0.1103
     28 C21         1.0186   -4.3939   -3.2296 C.3       1 <0>        -0.1811
     29 C22         1.8468   -4.8588   -4.4291 C.3       1 <0>         0.1377
     30 H2          1.1799   -5.2029   -5.2196 H         1 <0>         0.0935
     31 C23         2.7649   -6.0056   -4.0012 C.3       1 <0>        -0.2193
     32 C24         3.4903   -6.5449   -5.2070 C.2       1 <0>         0.4904
     33 O1          3.2915   -6.0573   -6.3066 O.co2     1 <0>        -0.6809
     34 O2          4.2761   -7.4688   -5.0829 O.co2     1 <0>        -0.7131
     35 O3          2.6372   -3.7709   -4.9126 O.3       1 <0>        -0.5277
     36 O4          0.7153   -2.1725   -4.1317 O.3       1 <0>        -0.5373
     37 H3          1.0039    1.9031    0.0027 H         1 <0>         0.0650
     38 H4         -0.5459    1.8868   -0.8726 H         1 <0>         0.0544
     39 H5         -0.5289    1.8773    0.9072 H         1 <0>         0.0647
     40 H6          0.5123   -0.3556   -0.8948 H         1 <0>         0.0968
     41 H7          0.2319   -0.1594    2.1383 H         1 <0>         0.0645
     42 H8          0.7568   -1.6008    1.2356 H         1 <0>         0.0544
     43 H9          1.7647   -0.1336    1.2338 H         1 <0>         0.0650
     44 H10        -3.9527    0.2301    2.8045 H         1 <0>         0.4279
     45 H11        -5.7755   -2.0056    0.2835 H         1 <0>         0.1849
     46 H12        -8.2405   -2.4407    1.0712 H         1 <0>         0.1754
     47 H13        -8.9168   -1.9936    4.2534 H         1 <0>         0.0723
     48 H14        -8.9880   -0.2231    4.0847 H         1 <0>         0.0866
     49 H15        -9.7789   -1.2647    2.8773 H         1 <0>         0.0875
     50 H16        -2.6396   -1.6939   -3.6077 H         1 <0>         0.1461
     51 H17        -3.5537   -3.1268   -5.3850 H         1 <0>         0.1434
     52 H18        -5.8955   -5.2341   -2.5015 H         1 <0>         0.1392
     53 H19        -4.9824   -3.8163   -0.7116 H         1 <0>         0.1387
     54 H20        -0.4470   -0.9285   -2.6806 H         1 <0>         0.1360
     55 H21        -1.4343   -3.7331   -2.0077 H         1 <0>         0.1149
     56 H22         1.6797   -3.9678   -2.4749 H         1 <0>         0.0647
     57 H23         0.4838   -5.2439   -2.8059 H         1 <0>         0.0750
     58 H24         3.4901   -5.6387   -3.2749 H         1 <0>         0.0564
     59 H25         2.1690   -6.7993   -3.5506 H         1 <0>         0.0608
     60 H26         3.2553   -3.4135   -4.2605 H         1 <0>         0.3501
     61 H27         1.2733   -1.7650   -3.4552 H         1 <0>         0.3661
@<TRIPOS>BOND
     1    1    2 1
     2    1   37 1
     3    1   38 1
     4    1   39 1
     5    2    3 1
     6    2    4 1
     7    2   40 1
     8    3   41 1
     9    3   42 1
    10    3   43 1
    11    4    9 ar
    12    4    5 ar
    13    5    6 ar
    14    5   24 1
    15    6    7 ar
    16    6   17 1
    17    7    8 ar
    18    8    9 ar
    19    8   10 1
    20   10   11 1
    21   10   44 1
    22   11   15 2
    23   11   12 1
    24   12   13 2
    25   12   45 1
    26   13   14 1
    27   13   46 1
    28   14   15 1
    29   14   16 1
    30   16   47 1
    31   16   48 1
    32   16   49 1
    33   17   22 ar
    34   17   18 ar
    35   18   19 ar
    36   18   50 1
    37   19   20 ar
    38   19   51 1
    39   20   21 ar
    40   20   23 1
    41   21   22 ar
    42   21   52 1
    43   22   53 1
    44   24   25 2
    45   24   54 1
    46   25   26 1
    47   25   55 1
    48   26   27 1
    49   26   28 1
    50   26   36 1
    51   28   29 1
    52   28   56 1
    53   28   57 1
    54   29   30 1
    55   29   31 1
    56   29   35 1
    57   31   32 1
    58   31   58 1
    59   31   59 1
    60   32   33 2
    61   32   34 1
    62   35   60 1
    63   36   61 1
@<TRIPOS>MOLECULE
CHEMBL466547
   62    64     0     0     0
SMALL
USER_CHARGES

@<TRIPOS>ATOM
      1 C1         -0.0215    1.5512    0.0223 C.3       1 <0>        -0.1400
      2 C2          0.0089    0.0215    0.0167 C.3       1 <0>        -0.0461
      3 C3          0.7466   -0.4785    1.2603 C.3       1 <0>        -0.1405
      4 C4         -1.4016   -0.5090    0.0221 C.ar      1 <0>         0.2382
      5 C5         -1.8563   -1.3234   -1.0192 C.ar      1 <0>        -0.1757
      6 C6         -3.1846   -1.7933   -0.9650 C.ar      1 <0>         0.2695
      7 N1         -3.9460   -1.4445    0.0685 N.ar      1 <0>        -0.5539
      8 C7         -3.4688   -0.6707    1.0301 C.ar      1 <0>         0.5676
      9 N2         -2.2237   -0.2152    1.0138 N.ar      1 <0>        -0.5408
     10 N3         -4.2945   -0.3302    2.0897 N.pl3     1 <0>        -0.5165
     11 C8         -3.7893    0.5252    3.1664 C.3       1 <0>         0.1101
     12 C9         -5.5983   -0.7989    2.1307 C.2       1 <0>         0.4876
     13 N4         -6.0233   -1.8702    2.7629 N.2       1 <0>        -0.3126
     14 N5         -7.2880   -2.0188    2.5966 N.2       1 <0>        -0.0322
     15 N6         -7.7569   -1.0710    1.8593 N.2       1 <0>        -0.0696
     16 N7         -6.6737   -0.2364    1.5325 N.pl3     1 <0>        -0.3707
     17 C10        -6.7027    0.9799    0.7164 C.3       1 <0>         0.0906
     18 C11        -3.7224   -2.6590   -2.0393 C.ar      1 <0>        -0.0774
     19 C12        -3.3150   -2.4699   -3.3601 C.ar      1 <0>        -0.0476
     20 C13        -3.8188   -3.2787   -4.3571 C.ar      1 <0>        -0.1584
     21 C14        -4.7283   -4.2780   -4.0487 C.ar      1 <0>         0.1234
     22 C15        -5.1360   -4.4697   -2.7380 C.ar      1 <0>        -0.1628
     23 C16        -4.6336   -3.6699   -1.7331 C.ar      1 <0>        -0.0440
     24 F1         -5.2193   -5.0674   -5.0289 F         1 <0>        -0.1337
     25 C17        -0.9706   -1.6810   -2.1444 C.2       1 <0>        -0.1277
     26 C18        -0.8474   -2.9494   -2.5147 C.2       1 <0>        -0.1476
     27 C19         0.0569   -3.3146   -3.6635 C.3       1 <0>         0.1410
     28 H1         -0.5399   -3.7172   -4.4820 H         1 <0>         0.1114
     29 C20         1.0669   -4.3675   -3.2028 C.3       1 <0>        -0.1813
     30 C21         1.9031   -4.8294   -4.3980 C.3       1 <0>         0.1379
     31 H2          1.2418   -5.1791   -5.1907 H         1 <0>         0.0937
     32 C22         2.8265   -5.9696   -3.9641 C.3       1 <0>        -0.2195
     33 C23         3.5605   -6.5065   -5.1658 C.2       1 <0>         0.4906
     34 O1          3.3633   -6.0221   -6.2671 O.co2     1 <0>        -0.6811
     35 O2          4.3515   -7.4253   -5.0367 O.co2     1 <0>        -0.7126
     36 O3          2.6888   -3.7374   -4.8800 O.3       1 <0>        -0.5276
     37 O4          0.7536   -2.1497   -4.1102 O.3       1 <0>        -0.5366
     38 H3          0.9987    1.9349    0.0184 H         1 <0>         0.0660
     39 H4         -0.5470    1.9074   -0.8636 H         1 <0>         0.0539
     40 H5         -0.5378    1.9011    0.9163 H         1 <0>         0.0647
     41 H6          0.5252   -0.3283   -0.8772 H         1 <0>         0.0976
     42 H7          0.2303   -0.1287    2.1543 H         1 <0>         0.0648
     43 H8          0.7683   -1.5683    1.2563 H         1 <0>         0.0549
     44 H9          1.7669   -0.0948    1.2564 H         1 <0>         0.0662
     45 H10        -3.8965    1.5714    2.8799 H         1 <0>         0.0644
     46 H11        -4.3586    0.3376    4.0768 H         1 <0>         0.0787
     47 H12        -2.7370    0.3030    3.3436 H         1 <0>         0.0982
     48 H13        -6.6228    0.7125   -0.3372 H         1 <0>         0.0925
     49 H14        -7.6400    1.5095    0.8868 H         1 <0>         0.1047
     50 H15        -5.8668    1.6226    0.9925 H         1 <0>         0.0947
     51 H16        -2.6066   -1.6912   -3.6014 H         1 <0>         0.1466
     52 H17        -3.5043   -3.1329   -5.3800 H         1 <0>         0.1448
     53 H18        -5.8452   -5.2495   -2.5027 H         1 <0>         0.1400
     54 H19        -4.9486   -3.8229   -0.7115 H         1 <0>         0.1347
     55 H20        -0.4227   -0.9105   -2.6664 H         1 <0>         0.1381
     56 H21        -1.3953   -3.7200   -1.9927 H         1 <0>         0.1150
     57 H22         1.7220   -3.9360   -2.4461 H         1 <0>         0.0651
     58 H23         0.5355   -5.2202   -2.7800 H         1 <0>         0.0754
     59 H24         3.5463   -5.5970   -3.2353 H         1 <0>         0.0566
     60 H25         2.2336   -6.7663   -3.5147 H         1 <0>         0.0611
     61 H26         3.3018   -3.3750   -4.2259 H         1 <0>         0.3501
     62 H27         1.3061   -1.7376   -3.4320 H         1 <0>         0.3661
@<TRIPOS>BOND
     1    1    2 1
     2    1   38 1
     3    1   39 1
     4    1   40 1
     5    2    3 1
     6    2    4 1
     7    2   41 1
     8    3   42 1
     9    3   43 1
    10    3   44 1
    11    4    9 ar
    12    4    5 ar
    13    5    6 ar
    14    5   25 1
    15    6    7 ar
    16    6   18 1
    17    7    8 ar
    18    8    9 ar
    19    8   10 1
    20   10   11 1
    21   10   12 1
    22   11   45 1
    23   11   46 1
    24   11   47 1
    25   12   16 1
    26   12   13 2
    27   13   14 1
    28   14   15 2
    29   15   16 1
    30   16   17 1
    31   17   48 1
    32   17   49 1
    33   17   50 1
    34   18   23 ar
    35   18   19 ar
    36   19   20 ar
    37   19   51 1
    38   20   21 ar
    39   20   52 1
    40   21   22 ar
    41   21   24 1
    42   22   23 ar
    43   22   53 1
    44   23   54 1
    45   25   26 2
    46   25   55 1
    47   26   27 1
    48   26   56 1
    49   27   28 1
    50   27   29 1
    51   27   37 1
    52   29   30 1
    53   29   57 1
    54   29   58 1
    55   30   31 1
    56   30   32 1
    57   30   36 1
    58   32   33 1
    59   32   59 1
    60   32   60 1
    61   33   34 2
    62   33   35 1
    63   36   61 1
    64   37   62 1
@<TRIPOS>MOLECULE
CHEMBL120949
   58    61     0     0     0
SMALL
USER_CHARGES

@<TRIPOS>ATOM
      1 C1         -0.0187    1.5258    0.0104 C.3       1 <0>        -0.1416
      2 C2          0.0021   -0.0041    0.0020 C.3       1 <0>        -0.0292
      3 C3         -1.4333   -0.5336    0.0129 C.3       1 <0>        -0.1420
      4 C4          0.7074   -0.4901   -1.2379 C.2       1 <0>         0.0437
      5 C5          0.6661    0.1057   -2.4452 C.2       1 <0>        -0.1721
      6 C6          1.4580   -0.6633   -3.3310 C.2       1 <0>        -0.1060
      7 C7          1.9611   -1.7256   -2.5993 C.2       1 <0>         0.0642
      8 N1          1.4953   -1.6009   -1.3166 N.pl3     1 <0>        -0.4271
      9 C8          1.7923   -2.5143   -0.2104 C.3       1 <0>         0.0948
     10 C9          0.7419   -3.6261   -0.1711 C.3       1 <0>        -0.1311
     11 C10         1.0520   -4.5801    0.9842 C.3       1 <0>         0.1136
     12 H1          2.0726   -4.9501    0.8867 H         1 <0>         0.0893
     13 C11         0.0755   -5.7587    0.9500 C.3       1 <0>        -0.1519
     14 C12         0.3623   -6.6902    2.1320 C.3       1 <0>         0.1046
     15 H2         -0.3395   -7.5241    2.1184 H         1 <0>         0.0818
     16 C13         0.1970   -5.9008    3.4369 C.3       1 <0>        -0.2046
     17 C14         1.0308   -4.6420    3.3392 C.2       1 <0>         0.4970
     18 O1          1.7820   -4.3234    4.2303 O.2       1 <0>        -0.4494
     19 O2          0.9122   -3.8853    2.2285 O.3       1 <0>        -0.3703
     20 O3          1.6986   -7.1874    2.0365 O.3       1 <0>        -0.5637
     21 C15         2.8435   -2.7949   -3.1072 C.ar      1 <0>        -0.0276
     22 C16         3.9544   -3.1994   -2.3636 C.ar      1 <0>        -0.0888
     23 C17         4.7747   -4.1989   -2.8428 C.ar      1 <0>        -0.1469
     24 C18         4.4988   -4.8016   -4.0600 C.ar      1 <0>         0.1040
     25 C19         3.3981   -4.4041   -4.8024 C.ar      1 <0>        -0.1459
     26 C20         2.5672   -3.4099   -4.3304 C.ar      1 <0>        -0.0646
     27 F1          5.3062   -5.7800   -4.5247 F         1 <0>        -0.1368
     28 C21         1.7015   -0.3852   -4.7660 C.ar      1 <0>        -0.0533
     29 C22         0.6340   -0.1183   -5.6295 C.ar      1 <0>        -0.0688
     30 C23         0.9145    0.1352   -6.9607 C.ar      1 <0>        -0.1699
     31 C24         2.2291    0.1167   -7.3909 C.ar      1 <0>         0.0899
     32 N2          3.2155   -0.1386   -6.5534 N.ar      1 <0>        -0.4810
     33 C25         2.9988   -0.3796   -5.2765 C.ar      1 <0>         0.1105
     34 H3          1.0039    1.9031    0.0027 H         1 <0>         0.0586
     35 H4         -0.5459    1.8868   -0.8726 H         1 <0>         0.0613
     36 H5         -0.5289    1.8773    0.9072 H         1 <0>         0.0614
     37 H6          0.5293   -0.3651    0.8851 H         1 <0>         0.0767
     38 H7         -1.9605   -0.1726   -0.8702 H         1 <0>         0.0606
     39 H8         -1.4185   -1.6235    0.0069 H         1 <0>         0.0526
     40 H9         -1.9435   -0.1821    0.9097 H         1 <0>         0.0612
     41 H10         0.1260    1.0077   -2.6927 H         1 <0>         0.1395
     42 H11         2.7797   -2.9524   -0.3560 H         1 <0>         0.0951
     43 H12         1.7741   -1.9639    0.7302 H         1 <0>         0.1022
     44 H13        -0.2456   -3.1881   -0.0255 H         1 <0>         0.0881
     45 H14         0.7601   -4.1766   -1.1117 H         1 <0>         0.0952
     46 H15        -0.9465   -5.3864    1.0199 H         1 <0>         0.0974
     47 H16         0.2000   -6.3072    0.0163 H         1 <0>         0.0996
     48 H17        -0.8514   -5.6372    3.5766 H         1 <0>         0.1195
     49 H18         0.5398   -6.5043    4.2774 H         1 <0>         0.1095
     50 H19         1.9482   -7.7850    2.7546 H         1 <0>         0.3878
     51 H20         4.1708   -2.7300   -1.4153 H         1 <0>         0.1319
     52 H21         5.6340   -4.5125   -2.2687 H         1 <0>         0.1390
     53 H22         3.1884   -4.8768   -5.7506 H         1 <0>         0.1386
     54 H23         1.7070   -3.1042   -4.9076 H         1 <0>         0.1326
     55 H24        -0.3832   -0.1105   -5.2667 H         1 <0>         0.1336
     56 H25         0.1155    0.3449   -7.6564 H         1 <0>         0.1346
     57 H26         2.4512    0.3141   -8.4292 H         1 <0>         0.1536
     58 H27         3.8331   -0.5796   -4.6205 H         1 <0>         0.1491
@<TRIPOS>BOND
     1    1    2 1
     2    1   34 1
     3    1   35 1
     4    1   36 1
     5    2    3 1
     6    2    4 1
     7    2   37 1
     8    3   38 1
     9    3   39 1
    10    3   40 1
    11    4    8 1
    12    4    5 2
    13    5    6 1
    14    5   41 1
    15    6    7 2
    16    6   28 1
    17    7    8 1
    18    7   21 1
    19    8    9 1
    20    9   10 1
    21    9   42 1
    22    9   43 1
    23   10   11 1
    24   10   44 1
    25   10   45 1
    26   11   12 1
    27   11   19 1
    28   11   13 1
    29   13   14 1
    30   13   46 1
    31   13   47 1
    32   14   15 1
    33   14   16 1
    34   14   20 1
    35   16   17 1
    36   16   48 1
    37   16   49 1
    38   17   18 2
    39   17   19 1
    40   20   50 1
    41   21   26 ar
    42   21   22 ar
    43   22   23 ar
    44   22   51 1
    45   23   24 ar
    46   23   52 1
    47   24   25 ar
    48   24   27 1
    49   25   26 ar
    50   25   53 1
    51   26   54 1
    52   28   33 ar
    53   28   29 ar
    54   29   30 ar
    55   29   55 1
    56   30   31 ar
    57   30   56 1
    58   31   32 ar
    59   31   57 1
    60   32   33 ar
    61   33   58 1
@<TRIPOS>MOLECULE
CHEMBL468632
   63    65     0     0     0
SMALL
USER_CHARGES

@<TRIPOS>ATOM
      1 C1         -0.0187    1.5258    0.0104 C.3       1 <0>        -0.1393
      2 C2          0.0021   -0.0041    0.0020 C.3       1 <0>        -0.0433
      3 C3          0.7182   -0.4975   -1.2568 C.3       1 <0>        -0.1388
      4 C4          0.7309   -0.5033    1.2229 C.ar      1 <0>         0.2342
      5 C5          0.0821   -1.3263    2.1482 C.ar      1 <0>        -0.1983
      6 C6          0.8099   -1.7655    3.2733 C.ar      1 <0>         0.2722
      7 N1          2.0762   -1.3812    3.4074 N.ar      1 <0>        -0.5317
      8 C7          2.6461   -0.6006    2.5031 C.ar      1 <0>         0.5726
      9 N2          1.9933   -0.1735    1.4305 N.ar      1 <0>        -0.5608
     10 N3          3.9664   -0.2224    2.6796 N.pl3     1 <0>        -0.6064
     11 C8          4.6742   -0.6633    3.7965 C.2       1 <0>         0.2107
     12 C9          4.2032   -1.4694    4.7878 C.2       1 <0>        -0.1959
     13 C10         5.2844   -1.6323    5.6867 C.2       1 <0>         0.0038
     14 N4          6.2997   -0.9431    5.2029 N.2       1 <0>        -0.2678
     15 N5          5.9674   -0.3750    4.0998 N.pl3     1 <0>        -0.3284
     16 C11         6.8523    0.4646    3.2886 C.3       1 <0>         0.0962
     17 C12         5.2770   -2.4236    6.9301 C.2       1 <0>         0.5617
     18 O1          4.2645   -3.0201    7.2694 O.co2     1 <0>        -0.6758
     19 O2          6.2834   -2.4838    7.6227 O.co2     1 <0>        -0.6815
     20 C13         0.1756   -2.6385    4.2874 C.ar      1 <0>        -0.0784
     21 C14        -1.1753   -2.4826    4.5985 C.ar      1 <0>        -0.0518
     22 C15        -1.7614   -3.2980    5.5438 C.ar      1 <0>        -0.1648
     23 C16        -1.0105   -4.2708    6.1846 C.ar      1 <0>         0.1169
     24 C17         0.3322   -4.4293    5.8793 C.ar      1 <0>        -0.1514
     25 C18         0.9257   -3.6232    4.9307 C.ar      1 <0>        -0.0315
     26 F1         -1.5890   -5.0669    7.1102 F         1 <0>        -0.1391
     27 C19        -1.3257   -1.7240    1.9531 C.2       1 <0>        -0.1136
     28 C20        -1.6733   -3.0014    2.0459 C.2       1 <0>        -0.1595
     29 C21        -3.1109   -3.4075    1.8467 C.3       1 <0>         0.1432
     30 H1         -3.5067   -3.8116    2.7784 H         1 <0>         0.1101
     31 C22        -3.1926   -4.4740    0.7527 C.3       1 <0>        -0.1807
     32 C23        -4.6332   -4.9761    0.6366 C.3       1 <0>         0.1375
     33 H2         -4.9759   -5.3254    1.6106 H         1 <0>         0.0938
     34 C24        -4.6923   -6.1285   -0.3682 C.3       1 <0>        -0.2190
     35 C25        -6.0851   -6.7034   -0.3919 C.2       1 <0>         0.4915
     36 O3         -6.9503   -6.2349    0.3281 O.co2     1 <0>        -0.6813
     37 O4         -6.3467   -7.6370   -1.1311 O.co2     1 <0>        -0.7159
     38 O5         -5.4743   -3.9109    0.1896 O.3       1 <0>        -0.5282
     39 O6         -3.8786   -2.2667    1.4580 O.3       1 <0>        -0.5386
     40 H3          1.0039    1.9031    0.0027 H         1 <0>         0.0635
     41 H4         -0.5459    1.8868   -0.8726 H         1 <0>         0.0612
     42 H5         -0.5289    1.8773    0.9072 H         1 <0>         0.0541
     43 H6         -1.0205   -0.3814    0.0098 H         1 <0>         0.0947
     44 H7          1.7408   -0.1202   -1.2645 H         1 <0>         0.0633
     45 H8          0.7330   -1.5874   -1.2628 H         1 <0>         0.0542
     46 H9          0.1910   -0.1364   -2.1398 H         1 <0>         0.0612
     47 H10         4.3987    0.3493    2.0260 H         1 <0>         0.4155
     48 H11         3.2139   -1.8945    4.8706 H         1 <0>         0.1862
     49 H12         6.7642    1.5023    3.6104 H         1 <0>         0.0713
     50 H13         7.8829    0.1321    3.4125 H         1 <0>         0.0925
     51 H14         6.5682    0.3842    2.2393 H         1 <0>         0.0753
     52 H15        -1.7611   -1.7244    4.1002 H         1 <0>         0.1417
     53 H16        -2.8072   -3.1781    5.7853 H         1 <0>         0.1385
     54 H17         0.9133   -5.1885    6.3816 H         1 <0>         0.1426
     55 H18         1.9708   -3.7508    4.6898 H         1 <0>         0.1438
     56 H19        -2.0730   -0.9755    1.7348 H         1 <0>         0.1318
     57 H20        -0.9260   -3.7499    2.2642 H         1 <0>         0.1161
     58 H21        -2.8801   -4.0434   -0.1986 H         1 <0>         0.0636
     59 H22        -2.5370   -5.3068    1.0074 H         1 <0>         0.0758
     60 H23        -4.4349   -5.7587   -1.3607 H         1 <0>         0.0557
     61 H24        -3.9843   -6.9034   -0.0743 H         1 <0>         0.0616
     62 H25        -5.2274   -3.5502   -0.6730 H         1 <0>         0.3489
     63 H26        -3.5818   -1.8546    0.6350 H         1 <0>         0.3644
@<TRIPOS>BOND
     1    1    2 1
     2    1   40 1
     3    1   41 1
     4    1   42 1
     5    2    3 1
     6    2    4 1
     7    2   43 1
     8    3   44 1
     9    3   45 1
    10    3   46 1
    11    4    9 ar
    12    4    5 ar
    13    5    6 ar
    14    5   27 1
    15    6    7 ar
    16    6   20 1
    17    7    8 ar
    18    8    9 ar
    19    8   10 1
    20   10   11 1
    21   10   47 1
    22   11   15 1
    23   11   12 2
    24   12   13 1
    25   12   48 1
    26   13   14 2
    27   13   17 1
    28   14   15 1
    29   15   16 1
    30   16   49 1
    31   16   50 1
    32   16   51 1
    33   17   18 2
    34   17   19 1
    35   20   25 ar
    36   20   21 ar
    37   21   22 ar
    38   21   52 1
    39   22   23 ar
    40   22   53 1
    41   23   24 ar
    42   23   26 1
    43   24   25 ar
    44   24   54 1
    45   25   55 1
    46   27   28 2
    47   27   56 1
    48   28   29 1
    49   28   57 1
    50   29   30 1
    51   29   31 1
    52   29   39 1
    53   31   32 1
    54   31   58 1
    55   31   59 1
    56   32   33 1
    57   32   34 1
    58   32   38 1
    59   34   35 1
    60   34   60 1
    61   34   61 1
    62   35   36 2
    63   35   37 1
    64   38   62 1
    65   39   63 1
@<TRIPOS>MOLECULE
CHEMBL313129
   89    92     0     0     0
SMALL
USER_CHARGES

@<TRIPOS>ATOM
      1 C1         -1.3907    1.9077   -0.7995 C.3       1 <0>        -0.1559
      2 C2         -1.1678    0.3987   -0.6808 C.3       1 <0>        -0.1022
      3 C3         -2.5173   -0.3210   -0.7226 C.3       1 <0>        -0.0570
      4 C4         -3.3876    0.1590    0.4406 C.3       1 <0>        -0.1426
      5 C5         -3.2194   -0.0117   -2.0464 C.3       1 <0>        -0.1287
      6 C6         -2.2978   -1.8073   -0.6057 C.2       1 <0>         0.4716
      7 O1         -1.1770   -2.2460   -0.4998 O.2       1 <0>        -0.5090
      8 O2         -3.3474   -2.6439   -0.6193 O.3       1 <0>        -0.3347
      9 C7         -3.0657   -4.0404   -0.5044 C.3       1 <0>         0.0946
     10 H1         -2.0902   -4.2512   -0.9394 H         1 <0>         0.0890
     11 C8         -2.9888   -4.3675    0.9970 C.3       1 <0>        -0.1315
     12 C9         -2.6255   -5.8400    1.1791 C.3       1 <0>        -0.0815
     13 H2         -1.6620   -6.0405    0.7109 H         1 <0>         0.0831
     14 C10        -3.7024   -6.7118    0.5319 C.3       1 <0>         0.1013
     15 H3         -3.4269   -7.7637    0.6467 H         1 <0>         0.0618
     16 C11        -3.8232   -6.3786   -0.9504 C.3       1 <0>        -0.0992
     17 H4         -4.6262   -6.9736   -1.3929 H         1 <0>         0.0789
     18 C12        -4.1471   -4.8905   -1.1500 C.3       1 <0>        -0.0554
     19 C13        -4.3533   -4.6495   -2.6344 C.3       1 <0>        -0.0688
     20 H5         -5.2363   -5.2652   -2.9333 H         1 <0>         0.0604
     21 C14        -3.2001   -5.0993   -3.5126 C.3       1 <0>        -0.0821
     22 H6         -3.5852   -5.1404   -4.5567 H         1 <0>         0.0625
     23 C15        -2.7029   -6.4970   -3.1750 C.3       1 <0>        -0.1105
     24 C16        -2.5122   -6.6905   -1.6733 C.3       1 <0>        -0.1183
     25 C17        -2.0547   -4.0915   -3.5136 C.3       1 <0>        -0.1568
     26 C18        -4.7288   -3.2021   -2.9443 C.3       1 <0>        -0.1167
     27 C19        -5.0411   -3.0642   -4.4357 C.3       1 <0>        -0.1195
     28 C20        -5.4173   -1.6140   -4.7461 C.3       1 <0>         0.1109
     29 C21        -5.8453   -1.4995   -6.2116 C.3       1 <0>        -0.1537
     30 C22        -6.1815   -0.0390   -6.5297 C.3       1 <0>         0.1045
     31 H7         -6.4744    0.0487   -7.5759 H         1 <0>         0.0771
     32 C23        -4.9399    0.8237   -6.2696 C.3       1 <0>        -0.2067
     33 C24        -4.4382    0.5250   -4.8738 C.2       1 <0>         0.4950
     34 O3         -4.1809    1.4179   -4.1015 O.2       1 <0>        -0.4471
     35 O4         -4.2858   -0.7670   -4.5165 O.3       1 <0>        -0.3612
     36 O5         -7.2548    0.3982   -5.6937 O.3       1 <0>        -0.5629
     37 O6         -4.9550   -6.4873    1.1831 O.3       1 <0>        -0.3711
     38 C25        -5.8388   -7.6097    1.1460 C.3       1 <0>         0.0689
     39 C26        -7.0945   -7.2972    1.9623 C.3       1 <0>        -0.0778
     40 C27        -8.0265   -8.4808    1.9231 C.ar      1 <0>        -0.0834
     41 C28        -8.9756   -8.5804    0.9230 C.ar      1 <0>        -0.1146
     42 C29        -9.8305   -9.6661    0.8871 C.ar      1 <0>        -0.1184
     43 C30        -9.7360  -10.6525    1.8510 C.ar      1 <0>        -0.1221
     44 C31        -8.7863  -10.5533    2.8506 C.ar      1 <0>        -0.1183
     45 C32        -7.9286   -9.4697    2.8841 C.ar      1 <0>        -0.1152
     46 C33        -2.5390   -6.1638    2.6728 C.3       1 <0>        -0.1437
     47 H8         -0.4292    2.4204   -0.7696 H         1 <0>         0.0565
     48 H9         -1.8908    2.1280   -1.7425 H         1 <0>         0.0636
     49 H10        -2.0107    2.2497    0.0292 H         1 <0>         0.0583
     50 H11        -0.5478    0.0567   -1.5095 H         1 <0>         0.0681
     51 H12        -0.6676    0.1783    0.2623 H         1 <0>         0.0669
     52 H13        -3.5464    1.2341    0.3560 H         1 <0>         0.0741
     53 H14        -4.3490   -0.3537    0.4107 H         1 <0>         0.0678
     54 H15        -2.8874   -0.0613    1.3836 H         1 <0>         0.0567
     55 H16        -2.5994   -0.3537   -2.8751 H         1 <0>         0.0565
     56 H17        -4.1808   -0.5244   -2.0762 H         1 <0>         0.0651
     57 H18        -3.3782    1.0633   -2.1309 H         1 <0>         0.0837
     58 H19        -2.2249   -3.7413    1.4569 H         1 <0>         0.0649
     59 H20        -3.9545   -4.1636    1.4557 H         1 <0>         0.0804
     60 H21        -5.0999   -4.6889   -0.6311 H         1 <0>         0.0842
     61 H22        -3.4224   -7.2366   -3.5421 H         1 <0>         0.0592
     62 H23        -1.7482   -6.6746   -3.6818 H         1 <0>         0.0633
     63 H24        -1.7202   -6.0401   -1.3097 H         1 <0>         0.0688
     64 H25        -2.2344   -7.7297   -1.4760 H         1 <0>         0.0624
     65 H26        -1.6048   -4.0518   -2.5216 H         1 <0>         0.0567
     66 H27        -1.3029   -4.3967   -4.2415 H         1 <0>         0.0509
     67 H28        -2.4380   -3.1061   -3.7785 H         1 <0>         0.0633
     68 H29        -5.6065   -2.9218   -2.3619 H         1 <0>         0.0639
     69 H30        -3.8967   -2.5474   -2.6853 H         1 <0>         0.0878
     70 H31        -4.1634   -3.3445   -5.0181 H         1 <0>         0.0788
     71 H32        -5.8732   -3.7189   -4.6947 H         1 <0>         0.0828
     72 H33        -6.2398   -1.3054   -4.1009 H         1 <0>         0.0847
     73 H34        -5.0318   -1.8339   -6.8553 H         1 <0>         0.0942
     74 H35        -6.7243   -2.1207   -6.3833 H         1 <0>         0.0960
     75 H36        -4.1657    0.5823   -6.9979 H         1 <0>         0.1160
     76 H37        -5.2026    1.8786   -6.3478 H         1 <0>         0.1062
     77 H38        -7.5200    1.3162   -5.8421 H         1 <0>         0.3857
     78 H39        -6.1191   -7.8174    0.1133 H         1 <0>         0.0486
     79 H40        -5.3379   -8.4806    1.5687 H         1 <0>         0.0484
     80 H41        -6.8142   -7.0895    2.9950 H         1 <0>         0.0801
     81 H42        -7.5953   -6.4263    1.5395 H         1 <0>         0.0808
     82 H43        -9.0494   -7.8099    0.1699 H         1 <0>         0.1219
     83 H44       -10.5724   -9.7436    0.1062 H         1 <0>         0.1224
     84 H45       -10.4044  -11.5003    1.8234 H         1 <0>         0.1217
     85 H46        -8.7127  -11.3237    3.6039 H         1 <0>         0.1225
     86 H47        -7.1841   -9.3941    3.6629 H         1 <0>         0.1218
     87 H48        -3.4705   -5.8777    3.1612 H         1 <0>         0.0642
     88 H49        -2.3737   -7.2332    2.8038 H         1 <0>         0.0530
     89 H50        -1.7112   -5.6111    3.1170 H         1 <0>         0.0545
@<TRIPOS>BOND
     1    1    2 1
     2    1   47 1
     3    1   48 1
     4    1   49 1
     5    2    3 1
     6    2   50 1
     7    2   51 1
     8    3    4 1
     9    3    5 1
    10    3    6 1
    11    4   52 1
    12    4   53 1
    13    4   54 1
    14    5   55 1
    15    5   56 1
    16    5   57 1
    17    6    7 2
    18    6    8 1
    19    8    9 1
    20    9   10 1
    21    9   18 1
    22    9   11 1
    23   11   12 1
    24   11   58 1
    25   11   59 1
    26   12   13 1
    27   12   14 1
    28   12   46 1
    29   14   15 1
    30   14   16 1
    31   14   37 1
    32   16   17 1
    33   16   24 1
    34   16   18 1
    35   18   19 1
    36   18   60 1
    37   19   20 1
    38   19   21 1
    39   19   26 1
    40   21   22 1
    41   21   23 1
    42   21   25 1
    43   23   24 1
    44   23   61 1
    45   23   62 1
    46   24   63 1
    47   24   64 1
    48   25   65 1
    49   25   66 1
    50   25   67 1
    51   26   27 1
    52   26   68 1
    53   26   69 1
    54   27   28 1
    55   27   70 1
    56   27   71 1
    57   28   35 1
    58   28   29 1
    59   28   72 1
    60   29   30 1
    61   29   73 1
    62   29   74 1
    63   30   31 1
    64   30   32 1
    65   30   36 1
    66   32   33 1
    67   32   75 1
    68   32   76 1
    69   33   34 2
    70   33   35 1
    71   36   77 1
    72   37   38 1
    73   38   39 1
    74   38   78 1
    75   38   79 1
    76   39   40 1
    77   39   80 1
    78   39   81 1
    79   40   45 ar
    80   40   41 ar
    81   41   42 ar
    82   41   82 1
    83   42   43 ar
    84   42   83 1
    85   43   44 ar
    86   43   84 1
    87   44   45 ar
    88   44   85 1
    89   45   86 1
    90   46   87 1
    91   46   88 1
    92   46   89 1
@<TRIPOS>MOLECULE
CHEMBL313129__1
   89    92     0     0     0
SMALL
USER_CHARGES

@<TRIPOS>ATOM
      1 C1         -1.3901    1.9075   -0.7996 C.3       1 <0>        -0.1564
      2 C2         -1.1673    0.3985   -0.6808 C.3       1 <0>        -0.1048
      3 C3         -2.5169   -0.3211   -0.7226 C.3       1 <0>        -0.0513
      4 C4         -3.3870    0.1590    0.4407 C.3       1 <0>        -0.1455
      5 C5         -3.2190   -0.0118   -2.0463 C.3       1 <0>        -0.1497
      6 C6         -2.2974   -1.8075   -0.6057 C.2       1 <0>         0.4687
      7 O1         -1.1766   -2.2462   -0.4998 O.2       1 <0>        -0.5050
      8 O2         -3.3471   -2.6440   -0.6191 O.3       1 <0>        -0.3338
      9 C7         -3.0654   -4.0405   -0.5042 C.3       1 <0>         0.0950
     10 H1         -2.0900   -4.2513   -0.9393 H         1 <0>         0.0897
     11 C8         -2.9885   -4.3675    0.9972 C.3       1 <0>        -0.1317
     12 C9         -2.6252   -5.8401    1.1794 C.3       1 <0>        -0.0813
     13 H2         -1.6617   -6.0406    0.7111 H         1 <0>         0.0832
     14 C10        -3.7022   -6.7118    0.5322 C.3       1 <0>         0.1010
     15 H3         -3.4268   -7.7637    0.6470 H         1 <0>         0.0621
     16 C11        -3.8231   -6.3787   -0.9500 C.3       1 <0>        -0.0994
     17 H4         -4.6262   -6.9736   -1.3925 H         1 <0>         0.0797
     18 C12        -4.1469   -4.8905   -1.1497 C.3       1 <0>        -0.0560
     19 C13        -4.3533   -4.6496   -2.6341 C.3       1 <0>        -0.0697
     20 H5         -5.2363   -5.2653   -2.9329 H         1 <0>         0.0634
     21 C14        -3.2001   -5.0995   -3.5124 C.3       1 <0>        -0.0842
     22 H6         -3.5853   -5.1406   -4.5564 H         1 <0>         0.0640
     23 C15        -2.7030   -6.4972   -3.1747 C.3       1 <0>        -0.1105
     24 C16        -2.5122   -6.6906   -1.6730 C.3       1 <0>        -0.1183
     25 C17        -2.0547   -4.0918   -3.5135 C.3       1 <0>        -0.1559
     26 C18        -4.7287   -3.2021   -2.9439 C.3       1 <0>        -0.1147
     27 C19        -5.0411   -3.0643   -4.4354 C.3       1 <0>        -0.1179
     28 C20        -5.4172   -1.6141   -4.7458 C.3       1 <0>         0.1095
     29 C21        -5.6132   -1.4488   -6.2551 C.3       1 <0>        -0.1564
     30 C22        -6.0300   -0.0060   -6.5580 C.3       1 <0>         0.1089
     31 H7         -5.2509    0.6776   -6.2208 H         1 <0>         0.0668
     32 C23        -7.3375    0.2988   -5.8157 C.3       1 <0>        -0.2057
     33 C24        -7.1538   -0.0695   -4.3597 C.2       1 <0>         0.4910
     34 O3         -7.4620    0.6997   -3.4804 O.2       1 <0>        -0.4469
     35 O4         -6.6359   -1.2815   -4.0715 O.3       1 <0>        -0.3611
     36 O5         -6.2278    0.1499   -7.9646 O.3       1 <0>        -0.5557
     37 O6         -4.9548   -6.4872    1.1835 O.3       1 <0>        -0.3710
     38 C25        -5.8386   -7.6095    1.1465 C.3       1 <0>         0.0691
     39 C26        -7.0942   -7.2970    1.9629 C.3       1 <0>        -0.0780
     40 C27        -8.0263   -8.4806    1.9239 C.ar      1 <0>        -0.0835
     41 C28        -8.9755   -8.5802    0.9238 C.ar      1 <0>        -0.1145
     42 C29        -9.8304   -9.6658    0.8880 C.ar      1 <0>        -0.1183
     43 C30        -9.7359  -10.6521    1.8519 C.ar      1 <0>        -0.1221
     44 C31        -8.7861  -10.5530    2.8515 C.ar      1 <0>        -0.1184
     45 C32        -7.9284   -9.4695    2.8848 C.ar      1 <0>        -0.1153
     46 C33        -2.5386   -6.1639    2.6730 C.3       1 <0>        -0.1439
     47 H8         -0.4286    2.4202   -0.7698 H         1 <0>         0.0596
     48 H9         -1.8903    2.1279   -1.7426 H         1 <0>         0.0590
     49 H10        -2.0100    2.2496    0.0292 H         1 <0>         0.0605
     50 H11        -0.5474    0.0564   -1.5096 H         1 <0>         0.0703
     51 H12        -0.6671    0.1781    0.2622 H         1 <0>         0.0710
     52 H13        -3.5458    1.2340    0.3561 H         1 <0>         0.0752
     53 H14        -4.3485   -0.3537    0.4109 H         1 <0>         0.0713
     54 H15        -2.8868   -0.0614    1.3837 H         1 <0>         0.0600
     55 H16        -2.5991   -0.3539   -2.8750 H         1 <0>         0.0584
     56 H17        -4.1805   -0.5245   -2.0760 H         1 <0>         0.0733
     57 H18        -3.3777    1.0632   -2.1309 H         1 <0>         0.0752
     58 H19        -2.2244   -3.7414    1.4570 H         1 <0>         0.0649
     59 H20        -3.9541   -4.1636    1.4560 H         1 <0>         0.0812
     60 H21        -5.0997   -4.6889   -0.6308 H         1 <0>         0.0858
     61 H22        -3.4226   -7.2368   -3.5418 H         1 <0>         0.0602
     62 H23        -1.7484   -6.6749   -3.6816 H         1 <0>         0.0639
     63 H24        -1.7201   -6.0402   -1.3096 H         1 <0>         0.0686
     64 H25        -2.2344   -7.7299   -1.4757 H         1 <0>         0.0630
     65 H26        -1.6047   -4.0520   -2.5215 H         1 <0>         0.0583
     66 H27        -1.3030   -4.3970   -4.2414 H         1 <0>         0.0537
     67 H28        -2.4380   -3.1064   -3.7784 H         1 <0>         0.0563
     68 H29        -5.6063   -2.9218   -2.3615 H         1 <0>         0.0750
     69 H30        -3.8965   -2.5475   -2.6850 H         1 <0>         0.0753
     70 H31        -4.1634   -3.3447   -5.0178 H         1 <0>         0.0899
     71 H32        -5.8733   -3.7189   -4.6943 H         1 <0>         0.0778
     72 H33        -4.6211   -0.9512   -4.4068 H         1 <0>         0.0781
     73 H34        -4.6790   -1.6731   -6.7699 H         1 <0>         0.0976
     74 H35        -6.3907   -2.1315   -6.5978 H         1 <0>         0.0911
     75 H36        -7.5688    1.3606   -5.8998 H         1 <0>         0.1067
     76 H37        -8.1489   -0.2897   -6.2440 H         1 <0>         0.1172
     77 H38        -6.4939    1.0416   -8.2280 H         1 <0>         0.3854
     78 H39        -6.1190   -7.8173    0.1139 H         1 <0>         0.0488
     79 H40        -5.3378   -8.4805    1.5693 H         1 <0>         0.0485
     80 H41        -6.8138   -7.0893    2.9955 H         1 <0>         0.0801
     81 H42        -7.5950   -6.4261    1.5402 H         1 <0>         0.0810
     82 H43        -9.0493   -7.8096    0.1707 H         1 <0>         0.1220
     83 H44       -10.5724   -9.7432    0.1071 H         1 <0>         0.1224
     84 H45       -10.4043  -11.4999    1.8244 H         1 <0>         0.1217
     85 H46        -8.7125  -11.3234    3.6048 H         1 <0>         0.1224
     86 H47        -7.1839   -9.3939    3.6635 H         1 <0>         0.1217
     87 H48        -3.4701   -5.8777    3.1615 H         1 <0>         0.0645
     88 H49        -2.3734   -7.2333    2.8040 H         1 <0>         0.0533
     89 H50        -1.7107   -5.6112    3.1172 H         1 <0>         0.0545
@<TRIPOS>BOND
     1    1    2 1
     2    1   47 1
     3    1   48 1
     4    1   49 1
     5    2    3 1
     6    2   50 1
     7    2   51 1
     8    3    4 1
     9    3    5 1
    10    3    6 1
    11    4   52 1
    12    4   53 1
    13    4   54 1
    14    5   55 1
    15    5   56 1
    16    5   57 1
    17    6    7 2
    18    6    8 1
    19    8    9 1
    20    9   10 1
    21    9   18 1
    22    9   11 1
    23   11   12 1
    24   11   58 1
    25   11   59 1
    26   12   13 1
    27   12   14 1
    28   12   46 1
    29   14   15 1
    30   14   16 1
    31   14   37 1
    32   16   17 1
    33   16   24 1
    34   16   18 1
    35   18   19 1
    36   18   60 1
    37   19   20 1
    38   19   21 1
    39   19   26 1
    40   21   22 1
    41   21   23 1
    42   21   25 1
    43   23   24 1
    44   23   61 1
    45   23   62 1
    46   24   63 1
    47   24   64 1
    48   25   65 1
    49   25   66 1
    50   25   67 1
    51   26   27 1
    52   26   68 1
    53   26   69 1
    54   27   28 1
    55   27   70 1
    56   27   71 1
    57   28   35 1
    58   28   29 1
    59   28   72 1
    60   29   30 1
    61   29   73 1
    62   29   74 1
    63   30   31 1
    64   30   32 1
    65   30   36 1
    66   32   33 1
    67   32   75 1
    68   32   76 1
    69   33   34 2
    70   33   35 1
    71   36   77 1
    72   37   38 1
    73   38   39 1
    74   38   78 1
    75   38   79 1
    76   39   40 1
    77   39   80 1
    78   39   81 1
    79   40   45 ar
    80   40   41 ar
    81   41   42 ar
    82   41   82 1
    83   42   43 ar
    84   42   83 1
    85   43   44 ar
    86   43   84 1
    87   44   45 ar
    88   44   85 1
    89   45   86 1
    90   46   87 1
    91   46   88 1
    92   46   89 1
@<TRIPOS>MOLECULE
CHEMBL313129__2
   89    92     0     0     0
SMALL
USER_CHARGES

@<TRIPOS>ATOM
      1 C1          0.4341    1.5484    1.2286 C.3       1 <0>        -0.1559
      2 C2          0.4578    0.0188    1.1978 C.3       1 <0>        -0.1056
      3 C3         -0.9233   -0.5047    0.7987 C.3       1 <0>        -0.0520
      4 C4         -1.9621   -0.0311    1.8172 C.3       1 <0>        -0.1486
      5 C5         -1.2892    0.0277   -0.5882 C.3       1 <0>        -0.1439
      6 C6         -0.8999   -2.0112    0.7684 C.2       1 <0>         0.4647
      7 O1          0.1170   -2.6052    1.0383 O.2       1 <0>        -0.5054
      8 O2         -2.0089   -2.6932    0.4415 O.3       1 <0>        -0.3253
      9 C7         -1.9147   -4.1190    0.4329 C.3       1 <0>         0.0889
     10 H1         -0.8973   -4.4145    0.1766 H         1 <0>         0.0885
     11 C8         -2.2696   -4.6619    1.8186 C.3       1 <0>        -0.1330
     12 C9         -3.6977   -4.2472    2.1784 C.3       1 <0>        -0.1080
     13 H2         -3.9506   -4.6340    3.1657 H         1 <0>         0.0676
     14 C10        -4.6702   -4.8163    1.1433 C.3       1 <0>         0.1032
     15 H3         -4.5984   -5.9039    1.1368 H         1 <0>         0.0562
     16 C11        -4.3153   -4.2735   -0.2424 C.3       1 <0>        -0.0734
     17 H4         -4.3871   -3.1859   -0.2359 H         1 <0>         0.0920
     18 C12        -2.8872   -4.6882   -0.6022 C.3       1 <0>        -0.0691
     19 C13        -2.5323   -4.1453   -1.9879 C.3       1 <0>        -0.0723
     20 H5         -2.6041   -3.0577   -1.9814 H         1 <0>         0.0784
     21 C14        -3.5047   -4.7144   -3.0230 C.3       1 <0>        -0.0851
     22 H6         -3.2519   -4.3276   -4.0102 H         1 <0>         0.0719
     23 C15        -4.9328   -4.2997   -2.6632 C.3       1 <0>        -0.1137
     24 C16        -5.2877   -4.8426   -1.2775 C.3       1 <0>        -0.1131
     25 C17        -3.4039   -6.2410   -3.0322 C.3       1 <0>        -0.1558
     26 C18        -1.1042   -4.5600   -2.3477 C.3       1 <0>        -0.1238
     27 C19        -0.7050   -3.9142   -3.6761 C.3       1 <0>        -0.1132
     28 C20         0.7231   -4.3289   -4.0359 C.3       1 <0>         0.1095
     29 C21         1.1665   -3.5899   -5.3013 C.3       1 <0>        -0.1533
     30 C22         2.5811   -4.0385   -5.6819 C.3       1 <0>         0.1039
     31 H7          2.8954   -3.5239   -6.5899 H         1 <0>         0.0792
     32 C23         2.5722   -5.5529   -5.9265 C.3       1 <0>        -0.2049
     33 C24         1.9409   -6.2239   -4.7262 C.2       1 <0>         0.4957
     34 O3          2.4738   -7.1659   -4.1891 O.2       1 <0>        -0.4533
     35 O4          0.7657   -5.7404   -4.2733 O.3       1 <0>        -0.3664
     36 O5          3.4841   -3.7281   -4.6188 O.3       1 <0>        -0.5631
     37 O6         -6.0040   -4.4290    1.4794 O.3       1 <0>        -0.3725
     38 C25        -6.6793   -5.3528    2.3353 C.3       1 <0>         0.0696
     39 C26        -8.0907   -4.8394    2.6275 C.3       1 <0>        -0.0772
     40 C27        -8.8028   -5.8136    3.5301 C.ar      1 <0>        -0.0838
     41 C28        -9.5368   -6.8507    2.9856 C.ar      1 <0>        -0.1150
     42 C29       -10.1900   -7.7444    3.8136 C.ar      1 <0>        -0.1184
     43 C30       -10.1089   -7.6011    5.1861 C.ar      1 <0>        -0.1221
     44 C31        -9.3742   -6.5645    5.7306 C.ar      1 <0>        -0.1184
     45 C32        -8.7175   -5.6734    4.9027 C.ar      1 <0>        -0.1150
     46 C33        -3.7985   -2.7206    2.1876 C.3       1 <0>        -0.1445
     47 H8          1.4181    1.9213    1.5130 H         1 <0>         0.0591
     48 H9          0.1734    1.9277    0.2406 H         1 <0>         0.0598
     49 H10        -0.3060    1.8857    1.9543 H         1 <0>         0.0599
     50 H11         1.1979   -0.3185    0.4722 H         1 <0>         0.0704
     51 H12         0.7186   -0.3605    2.1859 H         1 <0>         0.0698
     52 H13        -1.9790    1.0585    1.8392 H         1 <0>         0.0744
     53 H14        -2.9461   -0.4041    1.5329 H         1 <0>         0.0741
     54 H15        -1.7014   -0.4104    2.8053 H         1 <0>         0.0595
     55 H16        -0.5491   -0.3097   -1.3138 H         1 <0>         0.0595
     56 H17        -2.2732   -0.3453   -0.8726 H         1 <0>         0.0697
     57 H18        -1.3061    1.1174   -0.5663 H         1 <0>         0.0748
     58 H19        -2.1978   -5.7495    1.8121 H         1 <0>         0.0776
     59 H20        -1.5769   -4.2565    2.5560 H         1 <0>         0.0717
     60 H21        -2.8154   -5.7758   -0.6087 H         1 <0>         0.0911
     61 H22        -5.0046   -3.2121   -2.6567 H         1 <0>         0.0620
     62 H23        -5.6256   -4.7051   -3.4006 H         1 <0>         0.0612
     63 H24        -5.2159   -5.9302   -1.2840 H         1 <0>         0.0603
     64 H25        -6.3051   -4.5471   -1.0211 H         1 <0>         0.0700
     65 H26        -3.6568   -6.6278   -2.0449 H         1 <0>         0.0577
     66 H27        -4.0967   -6.6465   -3.7696 H         1 <0>         0.0518
     67 H28        -2.3865   -6.5365   -3.2885 H         1 <0>         0.0607
     68 H29        -0.4219   -4.2306   -1.5641 H         1 <0>         0.0620
     69 H30        -1.0535   -5.6448   -2.4413 H         1 <0>         0.0779
     70 H31        -1.3873   -4.2436   -4.4597 H         1 <0>         0.0801
     71 H32        -0.7556   -2.8295   -3.5825 H         1 <0>         0.0844
     72 H33         1.3931   -4.0779   -3.2135 H         1 <0>         0.0836
     73 H34         0.4803   -3.8202   -6.1162 H         1 <0>         0.0957
     74 H35         1.1633   -2.5159   -5.1152 H         1 <0>         0.0972
     75 H36         1.9910   -5.7773   -6.8208 H         1 <0>         0.1181
     76 H37         3.5941   -5.9108   -6.0523 H         1 <0>         0.1073
     77 H38         4.3999   -3.9854   -4.7928 H         1 <0>         0.3863
     78 H39        -6.7404   -6.3244    1.8451 H         1 <0>         0.0480
     79 H40        -6.1278   -5.4516    3.2703 H         1 <0>         0.0473
     80 H41        -8.0296   -3.8677    3.1177 H         1 <0>         0.0802
     81 H42        -8.6421   -4.7405    1.6924 H         1 <0>         0.0805
     82 H43        -9.6001   -6.9627    1.9133 H         1 <0>         0.1220
     83 H44       -10.7640   -8.5543    3.3882 H         1 <0>         0.1226
     84 H45       -10.6199   -8.2989    5.8330 H         1 <0>         0.1218
     85 H46        -9.3112   -6.4523    6.8029 H         1 <0>         0.1224
     86 H47        -8.1404   -4.8657    5.3281 H         1 <0>         0.1217
     87 H48        -3.7429   -2.3466    1.1653 H         1 <0>         0.0860
     88 H49        -4.7476   -2.4218    2.6326 H         1 <0>         0.0511
     89 H50        -2.9769   -2.3057    2.7715 H         1 <0>         0.0441
@<TRIPOS>BOND
     1    1    2 1
     2    1   47 1
     3    1   48 1
     4    1   49 1
     5    2    3 1
     6    2   50 1
     7    2   51 1
     8    3    4 1
     9    3    5 1
    10    3    6 1
    11    4   52 1
    12    4   53 1
    13    4   54 1
    14    5   55 1
    15    5   56 1
    16    5   57 1
    17    6    7 2
    18    6    8 1
    19    8    9 1
    20    9   10 1
    21    9   18 1
    22    9   11 1
    23   11   12 1
    24   11   58 1
    25   11   59 1
    26   12   13 1
    27   12   14 1
    28   12   46 1
    29   14   15 1
    30   14   16 1
    31   14   37 1
    32   16   17 1
    33   16   24 1
    34   16   18 1
    35   18   19 1
    36   18   60 1
    37   19   20 1
    38   19   21 1
    39   19   26 1
    40   21   22 1
    41   21   23 1
    42   21   25 1
    43   23   24 1
    44   23   61 1
    45   23   62 1
    46   24   63 1
    47   24   64 1
    48   25   65 1
    49   25   66 1
    50   25   67 1
    51   26   27 1
    52   26   68 1
    53   26   69 1
    54   27   28 1
    55   27   70 1
    56   27   71 1
    57   28   35 1
    58   28   29 1
    59   28   72 1
    60   29   30 1
    61   29   73 1
    62   29   74 1
    63   30   31 1
    64   30   32 1
    65   30   36 1
    66   32   33 1
    67   32   75 1
    68   32   76 1
    69   33   34 2
    70   33   35 1
    71   36   77 1
    72   37   38 1
    73   38   39 1
    74   38   78 1
    75   38   79 1
    76   39   40 1
    77   39   80 1
    78   39   81 1
    79   40   45 ar
    80   40   41 ar
    81   41   42 ar
    82   41   82 1
    83   42   43 ar
    84   42   83 1
    85   43   44 ar
    86   43   84 1
    87   44   45 ar
    88   44   85 1
    89   45   86 1
    90   46   87 1
    91   46   88 1
    92   46   89 1
@<TRIPOS>MOLECULE
CHEMBL313129__3
   89    92     0     0     0
SMALL
USER_CHARGES

@<TRIPOS>ATOM
      1 C1          0.4341    1.5484    1.2286 C.3       1 <0>        -0.1556
      2 C2          0.4578    0.0188    1.1978 C.3       1 <0>        -0.1057
      3 C3         -0.9233   -0.5047    0.7987 C.3       1 <0>        -0.0513
      4 C4         -1.9621   -0.0311    1.8172 C.3       1 <0>        -0.1482
      5 C5         -1.2892    0.0277   -0.5882 C.3       1 <0>        -0.1434
      6 C6         -0.8999   -2.0112    0.7684 C.2       1 <0>         0.4645
      7 O1          0.1170   -2.6052    1.0383 O.2       1 <0>        -0.5016
      8 O2         -2.0089   -2.6932    0.4415 O.3       1 <0>        -0.3261
      9 C7         -1.9147   -4.1190    0.4329 C.3       1 <0>         0.0887
     10 H1         -0.8973   -4.4145    0.1766 H         1 <0>         0.0893
     11 C8         -2.2696   -4.6619    1.8186 C.3       1 <0>        -0.1330
     12 C9         -3.6977   -4.2472    2.1784 C.3       1 <0>        -0.1081
     13 H2         -3.9506   -4.6340    3.1657 H         1 <0>         0.0674
     14 C10        -4.6702   -4.8163    1.1433 C.3       1 <0>         0.1036
     15 H3         -4.5984   -5.9039    1.1368 H         1 <0>         0.0559
     16 C11        -4.3153   -4.2735   -0.2424 C.3       1 <0>        -0.0739
     17 H4         -4.3871   -3.1859   -0.2359 H         1 <0>         0.0924
     18 C12        -2.8872   -4.6882   -0.6022 C.3       1 <0>        -0.0685
     19 C13        -2.5323   -4.1453   -1.9879 C.3       1 <0>        -0.0730
     20 H5         -2.6041   -3.0577   -1.9814 H         1 <0>         0.0801
     21 C14        -3.5047   -4.7144   -3.0230 C.3       1 <0>        -0.0868
     22 H6         -3.2519   -4.3276   -4.0102 H         1 <0>         0.0724
     23 C15        -4.9328   -4.2997   -2.6632 C.3       1 <0>        -0.1138
     24 C16        -5.2877   -4.8426   -1.2775 C.3       1 <0>        -0.1130
     25 C17        -3.4039   -6.2410   -3.0322 C.3       1 <0>        -0.1551
     26 C18        -1.1042   -4.5600   -2.3477 C.3       1 <0>        -0.1248
     27 C19        -0.7050   -3.9142   -3.6761 C.3       1 <0>        -0.1115
     28 C20         0.7231   -4.3289   -4.0359 C.3       1 <0>         0.1082
     29 C21         1.0808   -3.7819   -5.4204 C.3       1 <0>        -0.1550
     30 C22         2.5252   -4.1637   -5.7596 C.3       1 <0>         0.1088
     31 H7          2.6239   -5.2492   -5.7668 H         1 <0>         0.0668
     32 C23         3.4579   -3.5699   -4.6963 C.3       1 <0>        -0.2046
     33 C24         2.9442   -3.9778   -3.3329 C.2       1 <0>         0.4906
     34 O3          3.6861   -4.4521   -2.5056 O.2       1 <0>        -0.4468
     35 O4          1.6339   -3.7966   -3.0675 O.3       1 <0>        -0.3622
     36 O5          2.8685   -3.6434   -7.0455 O.3       1 <0>        -0.5557
     37 O6         -6.0040   -4.4290    1.4794 O.3       1 <0>        -0.3725
     38 C25        -6.6793   -5.3528    2.3353 C.3       1 <0>         0.0697
     39 C26        -8.0907   -4.8394    2.6275 C.3       1 <0>        -0.0774
     40 C27        -8.8028   -5.8136    3.5301 C.ar      1 <0>        -0.0838
     41 C28        -9.5368   -6.8507    2.9856 C.ar      1 <0>        -0.1150
     42 C29       -10.1900   -7.7444    3.8136 C.ar      1 <0>        -0.1185
     43 C30       -10.1089   -7.6011    5.1861 C.ar      1 <0>        -0.1221
     44 C31        -9.3742   -6.5645    5.7306 C.ar      1 <0>        -0.1183
     45 C32        -8.7175   -5.6734    4.9027 C.ar      1 <0>        -0.1150
     46 C33        -3.7985   -2.7206    2.1876 C.3       1 <0>        -0.1445
     47 H8          1.4181    1.9213    1.5130 H         1 <0>         0.0588
     48 H9          0.1734    1.9277    0.2406 H         1 <0>         0.0596
     49 H10        -0.3060    1.8857    1.9543 H         1 <0>         0.0597
     50 H11         1.1979   -0.3185    0.4722 H         1 <0>         0.0705
     51 H12         0.7186   -0.3605    2.1859 H         1 <0>         0.0697
     52 H13        -1.9790    1.0585    1.8392 H         1 <0>         0.0741
     53 H14        -2.9461   -0.4041    1.5329 H         1 <0>         0.0737
     54 H15        -1.7014   -0.4104    2.8053 H         1 <0>         0.0593
     55 H16        -0.5491   -0.3097   -1.3138 H         1 <0>         0.0600
     56 H17        -2.2732   -0.3453   -0.8726 H         1 <0>         0.0691
     57 H18        -1.3061    1.1174   -0.5663 H         1 <0>         0.0742
     58 H19        -2.1978   -5.7495    1.8121 H         1 <0>         0.0769
     59 H20        -1.5769   -4.2565    2.5560 H         1 <0>         0.0718
     60 H21        -2.8154   -5.7758   -0.6087 H         1 <0>         0.0901
     61 H22        -5.0046   -3.2121   -2.6567 H         1 <0>         0.0628
     62 H23        -5.6256   -4.7051   -3.4006 H         1 <0>         0.0616
     63 H24        -5.2159   -5.9302   -1.2840 H         1 <0>         0.0600
     64 H25        -6.3051   -4.5471   -1.0211 H         1 <0>         0.0704
     65 H26        -3.6568   -6.6278   -2.0449 H         1 <0>         0.0593
     66 H27        -4.0967   -6.6465   -3.7696 H         1 <0>         0.0533
     67 H28        -2.3865   -6.5365   -3.2885 H         1 <0>         0.0561
     68 H29        -0.4219   -4.2306   -1.5641 H         1 <0>         0.0729
     69 H30        -1.0535   -5.6448   -2.4413 H         1 <0>         0.0687
     70 H31        -1.3873   -4.2436   -4.4597 H         1 <0>         0.0911
     71 H32        -0.7556   -2.8295   -3.5825 H         1 <0>         0.0780
     72 H33         0.7952   -5.4165   -4.0439 H         1 <0>         0.0783
     73 H34         0.4077   -4.2076   -6.1646 H         1 <0>         0.0982
     74 H35         0.9823   -2.6964   -5.4191 H         1 <0>         0.0909
     75 H36         4.4682   -3.9537   -4.8382 H         1 <0>         0.1068
     76 H37         3.4625   -2.4829   -4.7772 H         1 <0>         0.1173
     77 H38         3.7714   -3.8482   -7.3244 H         1 <0>         0.3855
     78 H39        -6.7404   -6.3244    1.8451 H         1 <0>         0.0478
     79 H40        -6.1278   -5.4516    3.2703 H         1 <0>         0.0473
     80 H41        -8.0296   -3.8677    3.1177 H         1 <0>         0.0803
     81 H42        -8.6421   -4.7405    1.6924 H         1 <0>         0.0805
     82 H43        -9.6001   -6.9627    1.9133 H         1 <0>         0.1220
     83 H44       -10.7640   -8.5543    3.3882 H         1 <0>         0.1225
     84 H45       -10.6199   -8.2989    5.8330 H         1 <0>         0.1218
     85 H46        -9.3112   -6.4523    6.8029 H         1 <0>         0.1225
     86 H47        -8.1404   -4.8657    5.3281 H         1 <0>         0.1218
     87 H48        -3.7429   -2.3466    1.1653 H         1 <0>         0.0861
     88 H49        -4.7476   -2.4218    2.6326 H         1 <0>         0.0509
     89 H50        -2.9769   -2.3057    2.7715 H         1 <0>         0.0443
@<TRIPOS>BOND
     1    1    2 1
     2    1   47 1
     3    1   48 1
     4    1   49 1
     5    2    3 1
     6    2   50 1
     7    2   51 1
     8    3    4 1
     9    3    5 1
    10    3    6 1
    11    4   52 1
    12    4   53 1
    13    4   54 1
    14    5   55 1
    15    5   56 1
    16    5   57 1
    17    6    7 2
    18    6    8 1
    19    8    9 1
    20    9   10 1
    21    9   18 1
    22    9   11 1
    23   11   12 1
    24   11   58 1
    25   11   59 1
    26   12   13 1
    27   12   14 1
    28   12   46 1
    29   14   15 1
    30   14   16 1
    31   14   37 1
    32   16   17 1
    33   16   24 1
    34   16   18 1
    35   18   19 1
    36   18   60 1
    37   19   20 1
    38   19   21 1
    39   19   26 1
    40   21   22 1
    41   21   23 1
    42   21   25 1
    43   23   24 1
    44   23   61 1
    45   23   62 1
    46   24   63 1
    47   24   64 1
    48   25   65 1
    49   25   66 1
    50   25   67 1
    51   26   27 1
    52   26   68 1
    53   26   69 1
    54   27   28 1
    55   27   70 1
    56   27   71 1
    57   28   35 1
    58   28   29 1
    59   28   72 1
    60   29   30 1
    61   29   73 1
    62   29   74 1
    63   30   31 1
    64   30   32 1
    65   30   36 1
    66   32   33 1
    67   32   75 1
    68   32   76 1
    69   33   34 2
    70   33   35 1
    71   36   77 1
    72   37   38 1
    73   38   39 1
    74   38   78 1
    75   38   79 1
    76   39   40 1
    77   39   80 1
    78   39   81 1
    79   40   45 ar
    80   40   41 ar
    81   41   42 ar
    82   41   82 1
    83   42   43 ar
    84   42   83 1
    85   43   44 ar
    86   43   84 1
    87   44   45 ar
    88   44   85 1
    89   45   86 1
    90   46   87 1
    91   46   88 1
    92   46   89 1
@<TRIPOS>MOLECULE
CHEMBL85673
   72    74     0     0     0
SMALL
USER_CHARGES

@<TRIPOS>ATOM
      1 C1         -1.0191    2.9238   -2.1188 C.3       1 <0>        -0.1559
      2 C2         -0.6903    1.4875   -1.7067 C.3       1 <0>        -0.1059
      3 C3         -1.9805    0.7578   -1.3275 C.3       1 <0>        -0.0523
      4 C4         -2.6520    1.4826   -0.1593 C.3       1 <0>        -0.1448
      5 C5         -2.9280    0.7395   -2.5288 C.3       1 <0>        -0.1439
      6 C6         -1.6567   -0.6570   -0.9216 C.2       1 <0>         0.4676
      7 O1         -0.5115   -1.0420   -0.9342 O.2       1 <0>        -0.5028
      8 O2         -2.6405   -1.4893   -0.5460 O.3       1 <0>        -0.3394
      9 C7         -2.2614   -2.8159   -0.1741 C.3       1 <0>         0.0893
     10 H1         -1.3693   -3.1077   -0.7283 H         1 <0>         0.0875
     11 C8         -1.9667   -2.8604    1.3266 C.3       1 <0>        -0.1305
     12 C9         -1.5607   -4.2808    1.7248 C.3       1 <0>        -0.0879
     13 H2         -0.6686   -4.5725    1.1705 H         1 <0>         0.0717
     14 C10        -2.7016   -5.2472    1.4002 C.3       1 <0>        -0.1128
     15 C11        -2.9962   -5.2027   -0.1005 C.3       1 <0>        -0.0802
     16 C12        -3.4022   -3.7823   -0.4987 C.3       1 <0>        -0.0680
     17 C13        -3.6969   -3.7379   -1.9994 C.3       1 <0>        -0.0759
     18 H3         -3.9861   -2.7260   -2.2831 H         1 <0>         0.0764
     19 C14        -4.8377   -4.7043   -2.3240 C.3       1 <0>        -0.0828
     20 H4         -5.7298   -4.4126   -1.7698 H         1 <0>         0.0694
     21 C15        -4.4317   -6.1247   -1.9258 C.3       1 <0>        -0.1201
     22 C16        -4.1371   -6.1692   -0.4251 C.3       1 <0>        -0.1111
     23 C17        -5.1324   -4.6598   -3.8247 C.3       1 <0>        -0.1549
     24 C18        -2.4447   -4.1474   -2.7774 C.3       1 <0>        -0.1232
     25 C19        -2.5303   -3.6031   -4.2047 C.3       1 <0>        -0.1319
     26 C20        -1.2196   -3.8908   -4.9397 C.3       1 <0>         0.1095
     27 C21        -1.2582   -3.2428   -6.3262 C.3       1 <0>        -0.1531
     28 C22         0.0384   -3.5677   -7.0749 C.3       1 <0>         0.1039
     29 H5          0.0092   -3.1186   -8.0676 H         1 <0>         0.0790
     30 C23         0.1685   -5.0907   -7.2035 C.3       1 <0>        -0.2048
     31 C24         0.0010   -5.6993   -5.8284 C.2       1 <0>         0.4955
     32 O3          0.7881   -6.5147   -5.4095 O.2       1 <0>        -0.4536
     33 O4         -1.0528   -5.3057   -5.0836 O.3       1 <0>        -0.3662
     34 O5          1.1539   -3.0492   -6.3476 O.3       1 <0>        -0.5626
     35 C25        -1.2661   -4.3252    3.2255 C.3       1 <0>        -0.1466
     36 H6         -0.0999    3.4437   -2.3889 H         1 <0>         0.0597
     37 H7         -1.6940    2.9108   -2.9746 H         1 <0>         0.0599
     38 H8         -1.4974    3.4402   -1.2866 H         1 <0>         0.0599
     39 H9         -0.2119    0.9712   -2.5389 H         1 <0>         0.0712
     40 H10        -0.0154    1.5005   -0.8509 H         1 <0>         0.0705
     41 H11        -2.8862    2.5058   -0.4530 H         1 <0>         0.0757
     42 H12        -3.5712    0.9626    0.1107 H         1 <0>         0.0696
     43 H13        -1.9770    1.4956    0.6964 H         1 <0>         0.0598
     44 H14        -2.4496    0.2231   -3.3610 H         1 <0>         0.0596
     45 H15        -3.8471    0.2196   -2.2587 H         1 <0>         0.0696
     46 H16        -3.1621    1.7627   -2.8224 H         1 <0>         0.0755
     47 H17        -1.1540   -2.1719    1.5578 H         1 <0>         0.0655
     48 H18        -2.8588   -2.5686    1.8808 H         1 <0>         0.0718
     49 H19        -2.4124   -6.2591    1.6838 H         1 <0>         0.0669
     50 H20        -3.5937   -4.9555    1.9544 H         1 <0>         0.0651
     51 H21        -2.1041   -5.4945   -0.6548 H         1 <0>         0.0756
     52 H22        -4.2943   -3.4906    0.0555 H         1 <0>         0.0811
     53 H23        -5.2445   -6.8132   -2.1571 H         1 <0>         0.0618
     54 H24        -3.5396   -6.4164   -2.4801 H         1 <0>         0.0697
     55 H25        -3.8479   -7.1811   -0.1415 H         1 <0>         0.0645
     56 H26        -5.0292   -5.8774    0.1291 H         1 <0>         0.0626
     57 H27        -4.3528   -5.1978   -4.3641 H         1 <0>         0.0661
     58 H28        -6.0977   -5.1272   -4.0195 H         1 <0>         0.0516
     59 H29        -5.1565   -3.6229   -4.1597 H         1 <0>         0.0566
     60 H30        -1.5617   -3.7396   -2.2853 H         1 <0>         0.0613
     61 H31        -2.3746   -5.2347   -2.8067 H         1 <0>         0.0803
     62 H32        -3.3545   -4.0865   -4.7291 H         1 <0>         0.0969
     63 H33        -2.7007   -2.5269   -4.1735 H         1 <0>         0.0809
     64 H34        -0.3853   -3.4821   -4.3695 H         1 <0>         0.0819
     65 H35        -2.1087   -3.6320   -6.8860 H         1 <0>         0.0954
     66 H36        -1.3559   -2.1624   -6.2202 H         1 <0>         0.0963
     67 H37        -0.6056   -5.4706   -7.8702 H         1 <0>         0.1180
     68 H38         1.1520   -5.3433   -7.5998 H         1 <0>         0.1072
     69 H39         2.0092   -3.2193   -6.7654 H         1 <0>         0.3859
     70 H40        -2.1582   -4.0335    3.7797 H         1 <0>         0.0554
     71 H41        -0.9769   -5.3372    3.5091 H         1 <0>         0.0575
     72 H42        -0.4533   -3.6367    3.4567 H         1 <0>         0.0547
@<TRIPOS>BOND
     1    1    2 1
     2    1   36 1
     3    1   37 1
     4    1   38 1
     5    2    3 1
     6    2   39 1
     7    2   40 1
     8    3    4 1
     9    3    5 1
    10    3    6 1
    11    4   41 1
    12    4   42 1
    13    4   43 1
    14    5   44 1
    15    5   45 1
    16    5   46 1
    17    6    7 2
    18    6    8 1
    19    8    9 1
    20    9   10 1
    21    9   16 1
    22    9   11 1
    23   11   12 1
    24   11   47 1
    25   11   48 1
    26   12   13 1
    27   12   14 1
    28   12   35 1
    29   14   15 1
    30   14   49 1
    31   14   50 1
    32   15   22 1
    33   15   16 1
    34   15   51 1
    35   16   17 1
    36   16   52 1
    37   17   18 1
    38   17   19 1
    39   17   24 1
    40   19   20 1
    41   19   21 1
    42   19   23 1
    43   21   22 1
    44   21   53 1
    45   21   54 1
    46   22   55 1
    47   22   56 1
    48   23   57 1
    49   23   58 1
    50   23   59 1
    51   24   25 1
    52   24   60 1
    53   24   61 1
    54   25   26 1
    55   25   62 1
    56   25   63 1
    57   26   33 1
    58   26   27 1
    59   26   64 1
    60   27   28 1
    61   27   65 1
    62   27   66 1
    63   28   29 1
    64   28   30 1
    65   28   34 1
    66   30   31 1
    67   30   67 1
    68   30   68 1
    69   31   32 2
    70   31   33 1
    71   34   69 1
    72   35   70 1
    73   35   71 1
    74   35   72 1
@<TRIPOS>MOLECULE
CHEMBL85673__1
   72    74     0     0     0
SMALL
USER_CHARGES

@<TRIPOS>ATOM
      1 C1         -0.9710    2.9222   -2.0922 C.3       1 <0>        -0.1556
      2 C2         -0.6452    1.4834   -1.6865 C.3       1 <0>        -0.1057
      3 C3         -1.9368    0.7550   -1.3094 C.3       1 <0>        -0.0515
      4 C4         -2.6056    1.4763   -0.1376 C.3       1 <0>        -0.1445
      5 C5         -2.8853    0.7440   -2.5099 C.3       1 <0>        -0.1432
      6 C6         -1.6159   -0.6622   -0.9098 C.2       1 <0>         0.4669
      7 O1         -0.4717   -1.0499   -0.9250 O.2       1 <0>        -0.4972
      8 O2         -2.6014   -1.4939   -0.5369 O.3       1 <0>        -0.3408
      9 C7         -2.2250   -2.8229   -0.1710 C.3       1 <0>         0.0892
     10 H1         -1.3340   -3.1144   -0.7272 H         1 <0>         0.0894
     11 C8         -1.9292   -2.8745    1.3293 C.3       1 <0>        -0.1307
     12 C9         -1.5262   -4.2975    1.7210 C.3       1 <0>        -0.0879
     13 H2         -0.6352   -4.5890    1.1648 H         1 <0>         0.0718
     14 C10        -2.6695   -5.2599    1.3932 C.3       1 <0>        -0.1126
     15 C11        -2.9653   -5.2084   -0.1070 C.3       1 <0>        -0.0798
     16 C12        -3.3683   -3.7853   -0.4988 C.3       1 <0>        -0.0680
     17 C13        -3.6641   -3.7338   -1.9990 C.3       1 <0>        -0.0754
     18 H3         -3.9512   -2.7200   -2.2781 H         1 <0>         0.0778
     19 C14        -4.8075   -4.6962   -2.3268 C.3       1 <0>        -0.0846
     20 H4         -5.6984   -4.4047   -1.7706 H         1 <0>         0.0709
     21 C15        -4.4044   -6.1192   -1.9350 C.3       1 <0>        -0.1186
     22 C16        -4.1087   -6.1707   -0.4348 C.3       1 <0>        -0.1118
     23 C17        -5.1032   -4.6446   -3.8270 C.3       1 <0>        -0.1548
     24 C18        -2.4135   -4.1429   -2.7797 C.3       1 <0>        -0.1258
     25 C19        -2.4980   -3.5904   -4.2040 C.3       1 <0>        -0.1294
     26 C20        -1.1888   -3.8787   -4.9414 C.3       1 <0>         0.1071
     27 C21        -1.3155   -3.4339   -6.4009 C.3       1 <0>        -0.1545
     28 C22         0.0107   -3.6859   -7.1254 C.3       1 <0>         0.1089
     29 H5          0.2475   -4.7494   -7.0942 H         1 <0>         0.0667
     30 C23         1.1188   -2.8918   -6.4221 C.3       1 <0>        -0.2046
     31 C24         1.0727   -3.2182   -4.9454 C.2       1 <0>         0.4903
     32 O3          2.0755   -3.5247   -4.3450 O.2       1 <0>        -0.4474
     33 O4         -0.1203   -3.1571   -4.3183 O.3       1 <0>        -0.3604
     34 O5         -0.0981   -3.2594   -8.4850 O.3       1 <0>        -0.5557
     35 C25        -1.2304   -4.3491    3.2213 C.3       1 <0>        -0.1467
     36 H6         -0.0508    3.4411   -2.3608 H         1 <0>         0.0592
     37 H7         -1.6467    2.9144   -2.9475 H         1 <0>         0.0597
     38 H8         -1.4475    3.4361   -1.2574 H         1 <0>         0.0599
     39 H9         -0.1687    0.9695   -2.5213 H         1 <0>         0.0705
     40 H10         0.0305    1.4912   -0.8312 H         1 <0>         0.0702
     41 H11        -2.8377    2.5013   -0.4266 H         1 <0>         0.0752
     42 H12        -3.5258    0.9574    0.1311 H         1 <0>         0.0692
     43 H13        -1.9299    1.4841    0.7177 H         1 <0>         0.0595
     44 H14        -2.4088    0.2301   -3.3447 H         1 <0>         0.0599
     45 H15        -3.8054    0.2251   -2.2413 H         1 <0>         0.0689
     46 H16        -3.1173    1.7691   -2.7989 H         1 <0>         0.0746
     47 H17        -1.1146   -2.1889    1.5628 H         1 <0>         0.0656
     48 H18        -2.8201   -2.5831    1.8855 H         1 <0>         0.0712
     49 H19        -2.3824   -6.2737    1.6723 H         1 <0>         0.0665
     50 H20        -3.5605   -4.9685    1.9495 H         1 <0>         0.0651
     51 H21        -2.0743   -5.4998   -0.6632 H         1 <0>         0.0747
     52 H22        -4.2593   -3.4939    0.0574 H         1 <0>         0.0808
     53 H23        -5.2190   -6.8048   -2.1685 H         1 <0>         0.0625
     54 H24        -3.5135   -6.4106   -2.4912 H         1 <0>         0.0664
     55 H25        -3.8215   -7.1845   -0.1557 H         1 <0>         0.0644
     56 H26        -4.9996   -5.8793    0.1214 H         1 <0>         0.0634
     57 H27        -4.3241   -5.1801   -4.3696 H         1 <0>         0.0624
     58 H28        -6.0687   -5.1109   -4.0232 H         1 <0>         0.0534
     59 H29        -5.1276   -3.6061   -4.1571 H         1 <0>         0.0586
     60 H30        -1.5290   -3.7405   -2.2858 H         1 <0>         0.0732
     61 H31        -2.3468   -5.2302   -2.8152 H         1 <0>         0.0712
     62 H32        -3.3243   -4.0680   -4.7305 H         1 <0>         0.1063
     63 H33        -2.6646   -2.5138   -4.1669 H         1 <0>         0.0748
     64 H34        -0.9772   -4.9473   -4.9030 H         1 <0>         0.0772
     65 H35        -2.1089   -4.0019   -6.8866 H         1 <0>         0.0977
     66 H36        -1.5538   -2.3709   -6.4377 H         1 <0>         0.0902
     67 H37         2.0891   -3.1741   -6.8307 H         1 <0>         0.1065
     68 H38         0.9548   -1.8241   -6.5677 H         1 <0>         0.1167
     69 H39         0.7075   -3.3900   -9.0038 H         1 <0>         0.3853
     70 H40        -2.1213   -4.0576    3.7775 H         1 <0>         0.0552
     71 H41        -0.9432   -5.3629    3.5004 H         1 <0>         0.0572
     72 H42        -0.4158   -3.6634    3.4548 H         1 <0>         0.0548
@<TRIPOS>BOND
     1    1    2 1
     2    1   36 1
     3    1   37 1
     4    1   38 1
     5    2    3 1
     6    2   39 1
     7    2   40 1
     8    3    4 1
     9    3    5 1
    10    3    6 1
    11    4   41 1
    12    4   42 1
    13    4   43 1
    14    5   44 1
    15    5   45 1
    16    5   46 1
    17    6    7 2
    18    6    8 1
    19    8    9 1
    20    9   10 1
    21    9   16 1
    22    9   11 1
    23   11   12 1
    24   11   47 1
    25   11   48 1
    26   12   13 1
    27   12   14 1
    28   12   35 1
    29   14   15 1
    30   14   49 1
    31   14   50 1
    32   15   22 1
    33   15   16 1
    34   15   51 1
    35   16   17 1
    36   16   52 1
    37   17   18 1
    38   17   19 1
    39   17   24 1
    40   19   20 1
    41   19   21 1
    42   19   23 1
    43   21   22 1
    44   21   53 1
    45   21   54 1
    46   22   55 1
    47   22   56 1
    48   23   57 1
    49   23   58 1
    50   23   59 1
    51   24   25 1
    52   24   60 1
    53   24   61 1
    54   25   26 1
    55   25   62 1
    56   25   63 1
    57   26   33 1
    58   26   27 1
    59   26   64 1
    60   27   28 1
    61   27   65 1
    62   27   66 1
    63   28   29 1
    64   28   30 1
    65   28   34 1
    66   30   31 1
    67   30   67 1
    68   30   68 1
    69   31   32 2
    70   31   33 1
    71   34   69 1
    72   35   70 1
    73   35   71 1
    74   35   72 1
@<TRIPOS>MOLECULE
CHEMBL85673__2
   72    74     0     0     0
SMALL
USER_CHARGES

@<TRIPOS>ATOM
      1 C1         -0.0245    1.5266   -0.1939 C.3       1 <0>        -0.1561
      2 C2         -0.0037   -0.0032   -0.1992 C.3       1 <0>        -0.1049
      3 C3         -1.4375   -0.5331   -0.1320 C.3       1 <0>        -0.0526
      4 C4         -2.1050   -0.0366    1.1521 C.3       1 <0>        -0.1420
      5 C5         -2.2246   -0.0295   -1.3435 C.3       1 <0>        -0.1429
      6 C6         -1.4169   -2.0399   -0.1373 C.2       1 <0>         0.4618
      7 O1         -0.3636   -2.6296   -0.1894 O.2       1 <0>        -0.5062
      8 O2         -2.5688   -2.7270   -0.0840 O.3       1 <0>        -0.3262
      9 C7         -2.4747   -4.1529   -0.0926 C.3       1 <0>         0.0896
     10 H1         -1.5883   -4.4551   -0.6503 H         1 <0>         0.0803
     11 C8         -2.3721   -4.6658    1.3452 C.3       1 <0>        -0.1300
     12 C9         -2.2713   -6.1925    1.3360 C.3       1 <0>        -0.0878
     13 H2         -1.3849   -6.4948    0.7783 H         1 <0>         0.0703
     14 C10        -3.5173   -6.7819    0.6720 C.3       1 <0>        -0.1140
     15 C11        -3.6199   -6.2689   -0.7658 C.3       1 <0>        -0.0786
     16 C12        -3.7207   -4.7423   -0.7566 C.3       1 <0>        -0.0710
     17 C13        -4.9649   -4.3180    0.0263 C.3       1 <0>        -0.0733
     18 H3         -4.8918   -4.6834    1.0506 H         1 <0>         0.0751
     19 C14        -6.2109   -4.9074   -0.6378 C.3       1 <0>        -0.0865
     20 H4         -7.0973   -4.6051   -0.0800 H         1 <0>         0.0713
     21 C15        -6.1101   -6.4340   -0.6469 C.3       1 <0>        -0.1175
     22 C16        -4.8659   -6.8583   -1.4298 C.3       1 <0>        -0.1141
     23 C17        -6.3135   -4.3944   -2.0756 C.3       1 <0>        -0.1540
     24 C18        -5.0657   -2.7913    0.0354 C.3       1 <0>        -0.1244
     25 C19        -6.3388   -2.3687    0.7712 C.3       1 <0>        -0.1183
     26 C20        -6.4396   -0.8420    0.7803 C.3       1 <0>         0.1119
     27 C21        -7.6478   -0.4145    1.6179 C.3       1 <0>        -0.1546
     28 C22        -7.7698    1.1124    1.5907 C.3       1 <0>         0.1045
     29 H5         -8.6367    1.4199    2.1756 H         1 <0>         0.0777
     30 C23        -7.9422    1.5704    0.1369 C.3       1 <0>        -0.2060
     31 C24        -6.8322    0.9575   -0.6887 C.2       1 <0>         0.4957
     32 O3         -6.1718    1.6334   -1.4417 O.2       1 <0>        -0.4529
     33 O4         -6.6013   -0.3655   -0.5603 O.3       1 <0>        -0.3640
     34 O5         -6.5883    1.6969    2.1424 O.3       1 <0>        -0.5626
     35 C25        -2.1686   -6.7055    2.7738 C.3       1 <0>        -0.1463
     36 H6          0.9969    1.9041   -0.2417 H         1 <0>         0.0591
     37 H7         -0.5853    1.8854   -1.0570 H         1 <0>         0.0605
     38 H8         -0.5001    1.8803    0.7209 H         1 <0>         0.0595
     39 H9          0.4718   -0.3569   -1.1140 H         1 <0>         0.0701
     40 H10         0.5570   -0.3620    0.6639 H         1 <0>         0.0697
     41 H11        -2.1198    1.0533    1.1559 H         1 <0>         0.0750
     42 H12        -3.1264   -0.4140    1.1999 H         1 <0>         0.0671
     43 H13        -1.5442   -0.3953    2.0152 H         1 <0>         0.0590
     44 H14        -1.7490   -0.3832   -2.2583 H         1 <0>         0.0582
     45 H15        -3.2460   -0.4069   -1.2957 H         1 <0>         0.0717
     46 H16        -2.2394    1.0604   -1.3397 H         1 <0>         0.0746
     47 H17        -1.4844   -4.2459    1.8183 H         1 <0>         0.0643
     48 H18        -3.2584   -4.3636    1.9030 H         1 <0>         0.0756
     49 H19        -3.4455   -7.8695    0.6655 H         1 <0>         0.0643
     50 H20        -4.4037   -6.4796    1.2298 H         1 <0>         0.0725
     51 H21        -2.7336   -6.5712   -1.3235 H         1 <0>         0.0703
     52 H22        -3.7938   -4.3768   -1.7809 H         1 <0>         0.0809
     53 H23        -6.0370   -6.7995    0.3774 H         1 <0>         0.0639
     54 H24        -6.9978   -6.8539   -1.1200 H         1 <0>         0.0601
     55 H25        -4.9391   -6.4928   -2.4541 H         1 <0>         0.0663
     56 H26        -4.7941   -7.9459   -1.4364 H         1 <0>         0.0626
     57 H27        -5.4272   -4.6967   -2.6333 H         1 <0>         0.0576
     58 H28        -7.2012   -4.8143   -2.5486 H         1 <0>         0.0492
     59 H29        -6.3853   -3.3068   -2.0690 H         1 <0>         0.0614
     60 H30        -4.1967   -2.3729    0.5432 H         1 <0>         0.0943
     61 H31        -5.0994   -2.4233   -0.9900 H         1 <0>         0.0725
     62 H32        -7.2078   -2.7871    0.2633 H         1 <0>         0.0765
     63 H33        -6.3051   -2.7367    1.7966 H         1 <0>         0.0816
     64 H34        -5.5309   -0.4199    1.2094 H         1 <0>         0.0841
     65 H35        -8.5529   -0.8591    1.2040 H         1 <0>         0.0944
     66 H36        -7.5146   -0.7505    2.6462 H         1 <0>         0.0965
     67 H37        -8.9085    1.2369   -0.2413 H         1 <0>         0.1169
     68 H38        -7.8817    2.6575    0.0845 H         1 <0>         0.1065
     69 H39        -6.5974    2.6638    2.1564 H         1 <0>         0.3855
     70 H40        -3.0550   -6.4032    3.3316 H         1 <0>         0.0548
     71 H41        -2.0968   -7.7931    2.7673 H         1 <0>         0.0566
     72 H42        -1.2810   -6.2856    3.2469 H         1 <0>         0.0544
@<TRIPOS>BOND
     1    1    2 1
     2    1   36 1
     3    1   37 1
     4    1   38 1
     5    2    3 1
     6    2   39 1
     7    2   40 1
     8    3    4 1
     9    3    5 1
    10    3    6 1
    11    4   41 1
    12    4   42 1
    13    4   43 1
    14    5   44 1
    15    5   45 1
    16    5   46 1
    17    6    7 2
    18    6    8 1
    19    8    9 1
    20    9   10 1
    21    9   16 1
    22    9   11 1
    23   11   12 1
    24   11   47 1
    25   11   48 1
    26   12   13 1
    27   12   14 1
    28   12   35 1
    29   14   15 1
    30   14   49 1
    31   14   50 1
    32   15   22 1
    33   15   16 1
    34   15   51 1
    35   16   17 1
    36   16   52 1
    37   17   18 1
    38   17   19 1
    39   17   24 1
    40   19   20 1
    41   19   21 1
    42   19   23 1
    43   21   22 1
    44   21   53 1
    45   21   54 1
    46   22   55 1
    47   22   56 1
    48   23   57 1
    49   23   58 1
    50   23   59 1
    51   24   25 1
    52   24   60 1
    53   24   61 1
    54   25   26 1
    55   25   62 1
    56   25   63 1
    57   26   33 1
    58   26   27 1
    59   26   64 1
    60   27   28 1
    61   27   65 1
    62   27   66 1
    63   28   29 1
    64   28   30 1
    65   28   34 1
    66   30   31 1
    67   30   67 1
    68   30   68 1
    69   31   32 2
    70   31   33 1
    71   34   69 1
    72   35   70 1
    73   35   71 1
    74   35   72 1
@<TRIPOS>MOLECULE
CHEMBL85673__3
   72    74     0     0     0
SMALL
USER_CHARGES

@<TRIPOS>ATOM
      1 C1         -0.0348    1.5269   -0.3564 C.3       1 <0>        -0.1550
      2 C2         -0.0138   -0.0029   -0.3593 C.3       1 <0>        -0.1047
      3 C3         -1.4448   -0.5328   -0.2473 C.3       1 <0>        -0.0512
      4 C4         -2.0728   -0.0339    1.0556 C.3       1 <0>        -0.1430
      5 C5         -2.2686   -0.0319   -1.4352 C.3       1 <0>        -0.1396
      6 C6         -1.4241   -2.0397   -0.2501 C.2       1 <0>         0.4627
      7 O1         -0.3727   -2.6293   -0.3333 O.2       1 <0>        -0.5082
      8 O2         -2.5737   -2.7269   -0.1604 O.3       1 <0>        -0.3259
      9 C7         -2.4795   -4.1527   -0.1689 C.3       1 <0>         0.0894
     10 H1         -1.6105   -4.4560   -0.7529 H         1 <0>         0.0797
     11 C8         -2.3329   -4.6628    1.2661 C.3       1 <0>        -0.1303
     12 C9         -2.2321   -6.1894    1.2569 C.3       1 <0>        -0.0876
     13 H2         -1.3631   -6.4927    0.6730 H         1 <0>         0.0701
     14 C10        -3.4977   -6.7803    0.6324 C.3       1 <0>        -0.1142
     15 C11        -3.6443   -6.2703   -0.8026 C.3       1 <0>        -0.0789
     16 C12        -3.7451   -4.7436   -0.7934 C.3       1 <0>        -0.0703
     17 C13        -4.9649   -4.3180    0.0263 C.3       1 <0>        -0.0741
     18 H3         -4.8604   -4.6813    1.0486 H         1 <0>         0.0770
     19 C14        -6.2305   -4.9089   -0.5982 C.3       1 <0>        -0.0885
     20 H4         -7.0995   -4.6056   -0.0143 H         1 <0>         0.0723
     21 C15        -6.1297   -6.4355   -0.6074 C.3       1 <0>        -0.1177
     22 C16        -4.9099   -6.8612   -1.4271 C.3       1 <0>        -0.1140
     23 C17        -6.3771   -4.3988   -2.0332 C.3       1 <0>        -0.1532
     24 C18        -5.0657   -2.7913    0.0354 C.3       1 <0>        -0.1237
     25 C19        -6.3388   -2.3687    0.7712 C.3       1 <0>        -0.1163
     26 C20        -6.4396   -0.8420    0.7803 C.3       1 <0>         0.1113
     27 C21        -7.7704   -0.4214    1.4097 C.3       1 <0>        -0.1559
     28 C22        -7.8497    1.1079    1.4550 C.3       1 <0>         0.1087
     29 H5         -7.7904    1.5068    0.4423 H         1 <0>         0.0661
     30 C23        -6.6763    1.6411    2.2869 C.3       1 <0>        -0.2063
     31 C24        -5.3984    1.0375    1.7465 C.2       1 <0>         0.4899
     32 O3         -4.4394    1.7302    1.5007 O.2       1 <0>        -0.4430
     33 O4         -5.3605   -0.2962    1.5472 O.3       1 <0>        -0.3592
     34 O5         -9.0844    1.5057    2.0545 O.3       1 <0>        -0.5564
     35 C25        -2.0855   -6.6995    2.6919 C.3       1 <0>        -0.1465
     36 H6          0.9846    1.9044   -0.4362 H         1 <0>         0.0577
     37 H7         -0.6217    1.8838   -1.2027 H         1 <0>         0.0588
     38 H8         -0.4823    1.8824    0.5717 H         1 <0>         0.0613
     39 H9          0.4336   -0.3584   -1.2875 H         1 <0>         0.0681
     40 H10         0.5731   -0.3599    0.4870 H         1 <0>         0.0689
     41 H11        -2.0878    1.0560    1.0576 H         1 <0>         0.0792
     42 H12        -3.0923   -0.4114    1.1354 H         1 <0>         0.0803
     43 H13        -1.4859   -0.3908    1.9019 H         1 <0>         0.0501
     44 H14        -1.8211   -0.3873   -2.3634 H         1 <0>         0.0563
     45 H15        -3.2880   -0.4094   -1.3554 H         1 <0>         0.0665
     46 H16        -2.2836    1.0580   -1.4332 H         1 <0>         0.0743
     47 H17        -1.4313   -4.2418    1.7110 H         1 <0>         0.0643
     48 H18        -3.2019   -4.3595    1.8500 H         1 <0>         0.0760
     49 H19        -3.4259   -7.8680    0.6259 H         1 <0>         0.0643
     50 H20        -4.3667   -6.4771    1.2164 H         1 <0>         0.0725
     51 H21        -2.7753   -6.5736   -1.3865 H         1 <0>         0.0705
     52 H22        -3.8496   -4.3803   -1.8157 H         1 <0>         0.0801
     53 H23        -6.0252   -6.7989    0.4150 H         1 <0>         0.0647
     54 H24        -7.0313   -6.8565   -1.0523 H         1 <0>         0.0606
     55 H25        -5.0144   -6.4978   -2.4494 H         1 <0>         0.0660
     56 H26        -4.8381   -7.9488   -1.4336 H         1 <0>         0.0630
     57 H27        -5.5081   -4.7021   -2.6172 H         1 <0>         0.0592
     58 H28        -7.2787   -4.8198   -2.4781 H         1 <0>         0.0509
     59 H29        -6.4489   -3.3112   -2.0267 H         1 <0>         0.0562
     60 H30        -4.1967   -2.3729    0.5432 H         1 <0>         0.1036
     61 H31        -5.0994   -2.4233   -0.9900 H         1 <0>         0.0627
     62 H32        -7.2078   -2.7871    0.2633 H         1 <0>         0.0876
     63 H33        -6.3051   -2.7367    1.7966 H         1 <0>         0.0757
     64 H34        -6.3854   -0.4676   -0.2419 H         1 <0>         0.0778
     65 H35        -8.5945   -0.8108    0.8121 H         1 <0>         0.0967
     66 H36        -7.8354   -0.8191    2.4225 H         1 <0>         0.0901
     67 H37        -6.6324    2.7272    2.2064 H         1 <0>         0.1056
     68 H38        -6.8055    1.3543    3.3305 H         1 <0>         0.1159
     69 H39        -9.2014    2.4636    2.1154 H         1 <0>         0.3850
     70 H40        -2.9545   -6.3962    3.2759 H         1 <0>         0.0549
     71 H41        -2.0137   -7.7871    2.6854 H         1 <0>         0.0565
     72 H42        -1.1839   -6.2785    3.1368 H         1 <0>         0.0545
@<TRIPOS>BOND
     1    1    2 1
     2    1   36 1
     3    1   37 1
     4    1   38 1
     5    2    3 1
     6    2   39 1
     7    2   40 1
     8    3    4 1
     9    3    5 1
    10    3    6 1
    11    4   41 1
    12    4   42 1
    13    4   43 1
    14    5   44 1
    15    5   45 1
    16    5   46 1
    17    6    7 2
    18    6    8 1
    19    8    9 1
    20    9   10 1
    21    9   16 1
    22    9   11 1
    23   11   12 1
    24   11   47 1
    25   11   48 1
    26   12   13 1
    27   12   14 1
    28   12   35 1
    29   14   15 1
    30   14   49 1
    31   14   50 1
    32   15   22 1
    33   15   16 1
    34   15   51 1
    35   16   17 1
    36   16   52 1
    37   17   18 1
    38   17   19 1
    39   17   24 1
    40   19   20 1
    41   19   21 1
    42   19   23 1
    43   21   22 1
    44   21   53 1
    45   21   54 1
    46   22   55 1
    47   22   56 1
    48   23   57 1
    49   23   58 1
    50   23   59 1
    51   24   25 1
    52   24   60 1
    53   24   61 1
    54   25   26 1
    55   25   62 1
    56   25   63 1
    57   26   33 1
    58   26   27 1
    59   26   64 1
    60   27   28 1
    61   27   65 1
    62   27   66 1
    63   28   29 1
    64   28   30 1
    65   28   34 1
    66   30   31 1
    67   30   67 1
    68   30   68 1
    69   31   32 2
    70   31   33 1
    71   34   69 1
    72   35   70 1
    73   35   71 1
    74   35   72 1
@<TRIPOS>MOLECULE
CHEMBL85673__4
   72    74     0     0     0
SMALL
USER_CHARGES

@<TRIPOS>ATOM
      1 C1         -0.3262    1.9785   -0.8122 C.3       1 <0>        -0.1559
      2 C2         -0.3156    0.4690   -0.5628 C.3       1 <0>        -0.1023
      3 C3         -1.7473   -0.0675   -0.6208 C.3       1 <0>        -0.0571
      4 C4         -2.5937    0.6208    0.4520 C.3       1 <0>        -0.1426
      5 C5         -2.3431    0.2172   -2.0009 C.3       1 <0>        -0.1287
      6 C6         -1.7369   -1.5543   -0.3751 C.2       1 <0>         0.4714
      7 O1         -0.6916   -2.1261   -0.1742 O.2       1 <0>        -0.5083
      8 O2         -2.8888   -2.2433   -0.3794 O.3       1 <0>        -0.3366
      9 C7         -2.8045   -3.6498   -0.1394 C.3       1 <0>         0.0925
     10 H1         -1.8487   -4.0236   -0.5030 H         1 <0>         0.0918
     11 C8         -2.8361   -3.8541    1.3851 C.3       1 <0>        -0.1361
     12 C9         -2.6813   -5.3418    1.6992 C.3       1 <0>        -0.0887
     13 H2         -1.7414   -5.7085    1.2897 H         1 <0>         0.0740
     14 C10        -3.8503   -6.1055    1.0742 C.3       1 <0>        -0.1120
     15 C11        -3.8582   -5.8966   -0.4361 C.3       1 <0>        -0.0778
     16 C12        -3.9620   -4.4018   -0.7754 C.3       1 <0>        -0.0616
     17 C13        -4.0588   -4.2679   -2.2844 C.3       1 <0>        -0.0693
     18 H3         -5.0048   -4.7815   -2.5847 H         1 <0>         0.0620
     19 C14        -2.9406   -4.9470   -3.0532 C.3       1 <0>        -0.0815
     20 H4         -3.2779   -5.0278   -4.1116 H         1 <0>         0.0624
     21 C15        -2.6626   -6.3641   -2.5742 C.3       1 <0>        -0.1125
     22 C16        -2.5716   -6.4464   -1.0530 C.3       1 <0>        -0.1190
     23 C17        -1.6655   -4.1096   -3.0689 C.3       1 <0>        -0.1569
     24 C18        -4.2120   -2.8162   -2.7332 C.3       1 <0>        -0.1175
     25 C19        -4.4278   -2.7706   -4.2472 C.3       1 <0>        -0.1197
     26 C20        -4.5812   -1.3162   -4.6969 C.3       1 <0>         0.1108
     27 C21        -4.9160   -1.2755   -6.1903 C.3       1 <0>        -0.1538
     28 C22        -5.0281    0.1828   -6.6460 C.3       1 <0>         0.1045
     29 H5         -5.2538    0.2160   -7.7119 H         1 <0>         0.0772
     30 C23        -3.6923    0.8892   -6.3814 C.3       1 <0>        -0.2067
     31 C24        -3.3070    0.6507   -4.9378 C.2       1 <0>         0.4950
     32 O3         -2.9657    1.5657   -4.2263 O.2       1 <0>        -0.4473
     33 O4         -3.3550   -0.6131   -4.4680 O.3       1 <0>        -0.3614
     34 O5         -6.0696    0.8339   -5.9157 O.3       1 <0>        -0.5630
     35 C25        -2.6912   -5.5478    3.2156 C.3       1 <0>        -0.1474
     36 H6          0.6938    2.3608   -0.7709 H         1 <0>         0.0567
     37 H7         -0.7507    2.1814   -1.7955 H         1 <0>         0.0638
     38 H8         -0.9292    2.4689   -0.0480 H         1 <0>         0.0582
     39 H9          0.2874   -0.0213   -1.3270 H         1 <0>         0.0683
     40 H10         0.1089    0.2662    0.4204 H         1 <0>         0.0669
     41 H11        -2.6012    1.6962    0.2743 H         1 <0>         0.0745
     42 H12        -3.6136    0.2385    0.4107 H         1 <0>         0.0673
     43 H13        -2.1692    0.4180    1.4352 H         1 <0>         0.0566
     44 H14        -1.7401   -0.2731   -2.7652 H         1 <0>         0.0573
     45 H15        -3.3631   -0.1650   -2.0422 H         1 <0>         0.0645
     46 H16        -2.3507    1.2926   -2.1786 H         1 <0>         0.0839
     47 H17        -2.0175   -3.2956    1.8358 H         1 <0>         0.0661
     48 H18        -3.7873   -3.4932    1.7725 H         1 <0>         0.0704
     49 H19        -3.7470   -7.1689    1.2971 H         1 <0>         0.0668
     50 H20        -4.7872   -5.7416    1.4996 H         1 <0>         0.0650
     51 H21        -4.7155   -6.4151   -0.8714 H         1 <0>         0.0783
     52 H22        -4.9011   -4.0297   -0.3319 H         1 <0>         0.0759
     53 H23        -3.4614   -7.0280   -2.9211 H         1 <0>         0.0594
     54 H24        -1.7198   -6.7149   -3.0076 H         1 <0>         0.0615
     55 H25        -1.7140   -5.8793   -0.6985 H         1 <0>         0.0660
     56 H26        -2.4516   -7.4919   -0.7552 H         1 <0>         0.0621
     57 H27        -1.2613   -4.0442   -2.0588 H         1 <0>         0.0564
     58 H28        -0.9313   -4.5780   -3.7245 H         1 <0>         0.0510
     59 H29        -1.8929   -3.1084   -3.4348 H         1 <0>         0.0628
     60 H30        -5.0695   -2.3690   -2.2304 H         1 <0>         0.0636
     61 H31        -3.3102   -2.2598   -2.4778 H         1 <0>         0.0874
     62 H32        -3.5703   -3.2178   -4.7501 H         1 <0>         0.0791
     63 H33        -5.3296   -3.3269   -4.5027 H         1 <0>         0.0833
     64 H34        -5.3833   -0.8429   -4.1306 H         1 <0>         0.0846
     65 H35        -4.1265   -1.7730   -6.7537 H         1 <0>         0.0943
     66 H36        -5.8638   -1.7849   -6.3645 H         1 <0>         0.0962
     67 H37        -2.9245    0.4814   -7.0388 H         1 <0>         0.1161
     68 H38        -3.8004    1.9588   -6.5609 H         1 <0>         0.1063
     69 H39        -6.1959    1.7625   -6.1541 H         1 <0>         0.3857
     70 H40        -3.6346   -5.1866    3.6251 H         1 <0>         0.0549
     71 H41        -2.5808   -6.6090    3.4388 H         1 <0>         0.0566
     72 H42        -1.8654   -4.9946    3.6628 H         1 <0>         0.0545
@<TRIPOS>BOND
     1    1    2 1
     2    1   36 1
     3    1   37 1
     4    1   38 1
     5    2    3 1
     6    2   39 1
     7    2   40 1
     8    3    4 1
     9    3    5 1
    10    3    6 1
    11    4   41 1
    12    4   42 1
    13    4   43 1
    14    5   44 1
    15    5   45 1
    16    5   46 1
    17    6    7 2
    18    6    8 1
    19    8    9 1
    20    9   10 1
    21    9   16 1
    22    9   11 1
    23   11   12 1
    24   11   47 1
    25   11   48 1
    26   12   13 1
    27   12   14 1
    28   12   35 1
    29   14   15 1
    30   14   49 1
    31   14   50 1
    32   15   22 1
    33   15   16 1
    34   15   51 1
    35   16   17 1
    36   16   52 1
    37   17   18 1
    38   17   19 1
    39   17   24 1
    40   19   20 1
    41   19   21 1
    42   19   23 1
    43   21   22 1
    44   21   53 1
    45   21   54 1
    46   22   55 1
    47   22   56 1
    48   23   57 1
    49   23   58 1
    50   23   59 1
    51   24   25 1
    52   24   60 1
    53   24   61 1
    54   25   26 1
    55   25   62 1
    56   25   63 1
    57   26   33 1
    58   26   27 1
    59   26   64 1
    60   27   28 1
    61   27   65 1
    62   27   66 1
    63   28   29 1
    64   28   30 1
    65   28   34 1
    66   30   31 1
    67   30   67 1
    68   30   68 1
    69   31   32 2
    70   31   33 1
    71   34   69 1
    72   35   70 1
    73   35   71 1
    74   35   72 1
@<TRIPOS>MOLECULE
CHEMBL85673__5
   72    74     0     0     0
SMALL
USER_CHARGES

@<TRIPOS>ATOM
      1 C1         -0.3262    1.9785   -0.8123 C.3       1 <0>        -0.1564
      2 C2         -0.3156    0.4691   -0.5628 C.3       1 <0>        -0.1050
      3 C3         -1.7473   -0.0675   -0.6208 C.3       1 <0>        -0.0514
      4 C4         -2.5937    0.6208    0.4520 C.3       1 <0>        -0.1454
      5 C5         -2.3431    0.2172   -2.0009 C.3       1 <0>        -0.1497
      6 C6         -1.7369   -1.5543   -0.3751 C.2       1 <0>         0.4685
      7 O1         -0.6916   -2.1261   -0.1742 O.2       1 <0>        -0.5044
      8 O2         -2.8888   -2.2433   -0.3794 O.3       1 <0>        -0.3357
      9 C7         -2.8045   -3.6498   -0.1394 C.3       1 <0>         0.0930
     10 H1         -1.8488   -4.0236   -0.5030 H         1 <0>         0.0924
     11 C8         -2.8361   -3.8541    1.3851 C.3       1 <0>        -0.1363
     12 C9         -2.6813   -5.3418    1.6992 C.3       1 <0>        -0.0883
     13 H2         -1.7414   -5.7084    1.2897 H         1 <0>         0.0741
     14 C10        -3.8503   -6.1055    1.0742 C.3       1 <0>        -0.1125
     15 C11        -3.8582   -5.8966   -0.4361 C.3       1 <0>        -0.0779
     16 C12        -3.9620   -4.4018   -0.7754 C.3       1 <0>        -0.0621
     17 C13        -4.0588   -4.2678   -2.2844 C.3       1 <0>        -0.0702
     18 H3         -5.0048   -4.7815   -2.5847 H         1 <0>         0.0650
     19 C14        -2.9406   -4.9470   -3.0532 C.3       1 <0>        -0.0836
     20 H4         -3.2779   -5.0278   -4.1116 H         1 <0>         0.0638
     21 C15        -2.6626   -6.3641   -2.5742 C.3       1 <0>        -0.1125
     22 C16        -2.5716   -6.4463   -1.0530 C.3       1 <0>        -0.1191
     23 C17        -1.6655   -4.1096   -3.0689 C.3       1 <0>        -0.1560
     24 C18        -4.2120   -2.8162   -2.7332 C.3       1 <0>        -0.1155
     25 C19        -4.4278   -2.7706   -4.2473 C.3       1 <0>        -0.1180
     26 C20        -4.5812   -1.3162   -4.6969 C.3       1 <0>         0.1094
     27 C21        -4.6772   -1.2607   -6.2239 C.3       1 <0>        -0.1565
     28 C22        -4.8723    0.1925   -6.6680 C.3       1 <0>         0.1089
     29 H5         -4.0227    0.7916   -6.3403 H         1 <0>         0.0668
     30 C23        -6.1593    0.7361   -6.0345 C.3       1 <0>        -0.2056
     31 C24        -6.1013    0.4773   -4.5449 C.2       1 <0>         0.4911
     32 O3         -6.3419    1.3563   -3.7515 O.2       1 <0>        -0.4474
     33 O4         -5.7732   -0.7631   -4.1279 O.3       1 <0>        -0.3614
     34 O5         -4.9764    0.2480   -8.0921 O.3       1 <0>        -0.5556
     35 C25        -2.6912   -5.5478    3.2156 C.3       1 <0>        -0.1477
     36 H6          0.6938    2.3608   -0.7710 H         1 <0>         0.0598
     37 H7         -0.7507    2.1814   -1.7955 H         1 <0>         0.0591
     38 H8         -0.9292    2.4689   -0.0480 H         1 <0>         0.0605
     39 H9          0.2874   -0.0213   -1.3271 H         1 <0>         0.0705
     40 H10         0.1089    0.2662    0.4204 H         1 <0>         0.0710
     41 H11        -2.6012    1.6962    0.2743 H         1 <0>         0.0756
     42 H12        -3.6136    0.2386    0.4107 H         1 <0>         0.0708
     43 H13        -2.1692    0.4180    1.4352 H         1 <0>         0.0599
     44 H14        -1.7401   -0.2731   -2.7652 H         1 <0>         0.0586
     45 H15        -3.3631   -0.1650   -2.0422 H         1 <0>         0.0733
     46 H16        -2.3507    1.2926   -2.1786 H         1 <0>         0.0755
     47 H17        -2.0175   -3.2956    1.8358 H         1 <0>         0.0661
     48 H18        -3.7874   -3.4932    1.7725 H         1 <0>         0.0712
     49 H19        -3.7470   -7.1688    1.2971 H         1 <0>         0.0672
     50 H20        -4.7872   -5.7415    1.4996 H         1 <0>         0.0655
     51 H21        -4.7155   -6.4151   -0.8714 H         1 <0>         0.0791
     52 H22        -4.9011   -4.0297   -0.3319 H         1 <0>         0.0775
     53 H23        -3.4614   -7.0280   -2.9211 H         1 <0>         0.0604
     54 H24        -1.7198   -6.7149   -3.0076 H         1 <0>         0.0621
     55 H25        -1.7140   -5.8793   -0.6985 H         1 <0>         0.0658
     56 H26        -2.4516   -7.4919   -0.7552 H         1 <0>         0.0627
     57 H27        -1.2613   -4.0442   -2.0588 H         1 <0>         0.0581
     58 H28        -0.9313   -4.5780   -3.7245 H         1 <0>         0.0538
     59 H29        -1.8929   -3.1084   -3.4348 H         1 <0>         0.0558
     60 H30        -5.0695   -2.3690   -2.2304 H         1 <0>         0.0747
     61 H31        -3.3102   -2.2598   -2.4778 H         1 <0>         0.0749
     62 H32        -3.5703   -3.2178   -4.7501 H         1 <0>         0.0902
     63 H33        -5.3296   -3.3269   -4.5027 H         1 <0>         0.0783
     64 H34        -3.7180   -0.7396   -4.3648 H         1 <0>         0.0781
     65 H35        -3.7592   -1.6543   -6.6605 H         1 <0>         0.0977
     66 H36        -5.5247   -1.8597   -6.5571 H         1 <0>         0.0913
     67 H37        -6.2352    1.8078   -6.2186 H         1 <0>         0.1068
     68 H38        -7.0229    0.2271   -6.4625 H         1 <0>         0.1173
     69 H39        -5.1015    1.1404   -8.4428 H         1 <0>         0.3854
     70 H40        -3.6346   -5.1866    3.6251 H         1 <0>         0.0552
     71 H41        -2.5808   -6.6090    3.4388 H         1 <0>         0.0569
     72 H42        -1.8654   -4.9945    3.6628 H         1 <0>         0.0545
@<TRIPOS>BOND
     1    1    2 1
     2    1   36 1
     3    1   37 1
     4    1   38 1
     5    2    3 1
     6    2   39 1
     7    2   40 1
     8    3    4 1
     9    3    5 1
    10    3    6 1
    11    4   41 1
    12    4   42 1
    13    4   43 1
    14    5   44 1
    15    5   45 1
    16    5   46 1
    17    6    7 2
    18    6    8 1
    19    8    9 1
    20    9   10 1
    21    9   16 1
    22    9   11 1
    23   11   12 1
    24   11   47 1
    25   11   48 1
    26   12   13 1
    27   12   14 1
    28   12   35 1
    29   14   15 1
    30   14   49 1
    31   14   50 1
    32   15   22 1
    33   15   16 1
    34   15   51 1
    35   16   17 1
    36   16   52 1
    37   17   18 1
    38   17   19 1
    39   17   24 1
    40   19   20 1
    41   19   21 1
    42   19   23 1
    43   21   22 1
    44   21   53 1
    45   21   54 1
    46   22   55 1
    47   22   56 1
    48   23   57 1
    49   23   58 1
    50   23   59 1
    51   24   25 1
    52   24   60 1
    53   24   61 1
    54   25   26 1
    55   25   62 1
    56   25   63 1
    57   26   33 1
    58   26   27 1
    59   26   64 1
    60   27   28 1
    61   27   65 1
    62   27   66 1
    63   28   29 1
    64   28   30 1
    65   28   34 1
    66   30   31 1
    67   30   67 1
    68   30   68 1
    69   31   32 2
    70   31   33 1
    71   34   69 1
    72   35   70 1
    73   35   71 1
    74   35   72 1
@<TRIPOS>MOLECULE
CHEMBL85673__6
   72    74     0     0     0
SMALL
USER_CHARGES

@<TRIPOS>ATOM
      1 C1          0.4332    1.5483    1.2243 C.3       1 <0>        -0.1559
      2 C2          0.4569    0.0188    1.1936 C.3       1 <0>        -0.1057
      3 C3         -0.9246   -0.5048    0.7958 C.3       1 <0>        -0.0523
      4 C4         -1.9625   -0.0312    1.8153 C.3       1 <0>        -0.1483
      5 C5         -1.2919    0.0276   -0.5908 C.3       1 <0>        -0.1436
      6 C6         -0.9013   -2.0113    0.7655 C.2       1 <0>         0.4639
      7 O1          0.1159   -2.6053    1.0346 O.2       1 <0>        -0.5057
      8 O2         -2.0105   -2.6933    0.4398 O.3       1 <0>        -0.3264
      9 C7         -1.9164   -4.1191    0.4312 C.3       1 <0>         0.0907
     10 H1         -0.8992   -4.4146    0.1739 H         1 <0>         0.0851
     11 C8         -2.2700   -4.6619    1.8173 C.3       1 <0>        -0.1338
     12 C9         -3.6977   -4.2472    2.1784 C.3       1 <0>        -0.0875
     13 H2         -3.9496   -4.6339    3.1659 H         1 <0>         0.0670
     14 C10        -4.6712   -4.8164    1.1443 C.3       1 <0>        -0.1103
     15 C11        -4.3176   -4.2736   -0.2418 C.3       1 <0>        -0.0791
     16 C12        -2.8898   -4.6883   -0.6029 C.3       1 <0>        -0.0699
     17 C13        -2.5363   -4.1455   -1.9890 C.3       1 <0>        -0.0744
     18 H3         -2.6080   -3.0579   -1.9825 H         1 <0>         0.0762
     19 C14        -3.5097   -4.7147   -3.0232 C.3       1 <0>        -0.0843
     20 H4         -3.2578   -4.3280   -4.0106 H         1 <0>         0.0707
     21 C15        -4.9374   -4.3000   -2.6620 C.3       1 <0>        -0.1141
     22 C16        -5.2910   -4.8428   -1.2759 C.3       1 <0>        -0.1170
     23 C17        -3.4089   -6.2414   -3.0323 C.3       1 <0>        -0.1559
     24 C18        -1.1085   -4.5602   -2.3502 C.3       1 <0>        -0.1239
     25 C19        -0.7105   -3.9146   -3.6790 C.3       1 <0>        -0.1132
     26 C20         0.7172   -4.3293   -4.0401 C.3       1 <0>         0.1095
     27 C21         1.1594   -3.5904   -5.3060 C.3       1 <0>        -0.1533
     28 C22         2.5736   -4.0390   -5.6879 C.3       1 <0>         0.1039
     29 H5          2.8871   -3.5244   -6.5963 H         1 <0>         0.0793
     30 C23         2.5645   -5.5533   -5.9324 C.3       1 <0>        -0.2047
     31 C24         1.9344   -6.2243   -4.7315 C.2       1 <0>         0.4956
     32 O3          2.4678   -7.1663   -4.1948 O.2       1 <0>        -0.4533
     33 O4          0.7595   -5.7408   -4.2775 O.3       1 <0>        -0.3664
     34 O5          3.4776   -3.7285   -4.6257 O.3       1 <0>        -0.5631
     35 C25        -3.7985   -2.7206    2.1876 C.3       1 <0>        -0.1551
     36 H6          1.4174    1.9213    1.5077 H         1 <0>         0.0592
     37 H7          0.1715    1.9276    0.2365 H         1 <0>         0.0597
     38 H8         -0.3062    1.8857    1.9506 H         1 <0>         0.0598
     39 H9          1.1963   -0.3186    0.4673 H         1 <0>         0.0704
     40 H10         0.7186   -0.3604    2.1814 H         1 <0>         0.0700
     41 H11        -1.9794    1.0585    1.8372 H         1 <0>         0.0744
     42 H12        -2.9467   -0.4042    1.5319 H         1 <0>         0.0732
     43 H13        -1.7008   -0.4104    2.8031 H         1 <0>         0.0598
     44 H14        -0.5525   -0.3099   -1.3171 H         1 <0>         0.0595
     45 H15        -2.2761   -0.3454   -0.8742 H         1 <0>         0.0692
     46 H16        -1.3088    1.1172   -0.5689 H         1 <0>         0.0747
     47 H17        -2.1982   -5.7495    1.8108 H         1 <0>         0.0770
     48 H18        -1.5765   -4.2564    2.5540 H         1 <0>         0.0663
     49 H19        -4.5994   -5.9040    1.1378 H         1 <0>         0.0604
     50 H20        -5.6883   -4.5210    1.4016 H         1 <0>         0.0639
     51 H21        -4.3894   -3.1860   -0.2353 H         1 <0>         0.0826
     52 H22        -2.8180   -5.7759   -0.6095 H         1 <0>         0.0898
     53 H23        -5.0092   -3.2124   -2.6555 H         1 <0>         0.0609
     54 H24        -5.6309   -4.7055   -3.3988 H         1 <0>         0.0605
     55 H25        -5.2192   -5.9304   -1.2824 H         1 <0>         0.0643
     56 H26        -6.3082   -4.5474   -1.0186 H         1 <0>         0.0607
     57 H27        -3.6608   -6.6281   -2.0448 H         1 <0>         0.0590
     58 H28        -4.1023   -6.6469   -3.7691 H         1 <0>         0.0512
     59 H29        -2.3917   -6.5368   -3.2896 H         1 <0>         0.0605
     60 H30        -0.4254   -4.2309   -1.5672 H         1 <0>         0.0615
     61 H31        -1.0579   -5.6450   -2.4438 H         1 <0>         0.0774
     62 H32        -1.3936   -4.2440   -4.4619 H         1 <0>         0.0796
     63 H33        -0.7611   -2.8298   -3.5854 H         1 <0>         0.0838
     64 H34         1.3880   -4.0782   -3.2184 H         1 <0>         0.0835
     65 H35         0.4724   -3.8207   -6.1202 H         1 <0>         0.0956
     66 H36         1.1564   -2.5164   -5.1199 H         1 <0>         0.0970
     67 H37         1.9824   -5.7778   -6.8262 H         1 <0>         0.1181
     68 H38         3.5862   -5.9112   -6.0591 H         1 <0>         0.1074
     69 H39         4.3932   -3.9858   -4.8005 H         1 <0>         0.3863
     70 H40        -3.7429   -2.3466    1.1653 H         1 <0>         0.0865
     71 H41        -4.7476   -2.4218    2.6326 H         1 <0>         0.0453
     72 H42        -2.9769   -2.3057    2.7715 H         1 <0>         0.0466
@<TRIPOS>BOND
     1    1    2 1
     2    1   36 1
     3    1   37 1
     4    1   38 1
     5    2    3 1
     6    2   39 1
     7    2   40 1
     8    3    4 1
     9    3    5 1
    10    3    6 1
    11    4   41 1
    12    4   42 1
    13    4   43 1
    14    5   44 1
    15    5   45 1
    16    5   46 1
    17    6    7 2
    18    6    8 1
    19    8    9 1
    20    9   10 1
    21    9   16 1
    22    9   11 1
    23   11   12 1
    24   11   47 1
    25   11   48 1
    26   12   13 1
    27   12   14 1
    28   12   35 1
    29   14   15 1
    30   14   49 1
    31   14   50 1
    32   15   22 1
    33   15   16 1
    34   15   51 1
    35   16   17 1
    36   16   52 1
    37   17   18 1
    38   17   19 1
    39   17   24 1
    40   19   20 1
    41   19   21 1
    42   19   23 1
    43   21   22 1
    44   21   53 1
    45   21   54 1
    46   22   55 1
    47   22   56 1
    48   23   57 1
    49   23   58 1
    50   23   59 1
    51   24   25 1
    52   24   60 1
    53   24   61 1
    54   25   26 1
    55   25   62 1
    56   25   63 1
    57   26   33 1
    58   26   27 1
    59   26   64 1
    60   27   28 1
    61   27   65 1
    62   27   66 1
    63   28   29 1
    64   28   30 1
    65   28   34 1
    66   30   31 1
    67   30   67 1
    68   30   68 1
    69   31   32 2
    70   31   33 1
    71   34   69 1
    72   35   70 1
    73   35   71 1
    74   35   72 1
@<TRIPOS>MOLECULE
CHEMBL85673__7
   72    74     0     0     0
SMALL
USER_CHARGES

@<TRIPOS>ATOM
      1 C1          0.4332    1.5483    1.2243 C.3       1 <0>        -0.1555
      2 C2          0.4569    0.0188    1.1936 C.3       1 <0>        -0.1059
      3 C3         -0.9246   -0.5048    0.7958 C.3       1 <0>        -0.0516
      4 C4         -1.9625   -0.0312    1.8153 C.3       1 <0>        -0.1480
      5 C5         -1.2919    0.0276   -0.5908 C.3       1 <0>        -0.1432
      6 C6         -0.9013   -2.0113    0.7655 C.2       1 <0>         0.4637
      7 O1          0.1159   -2.6053    1.0346 O.2       1 <0>        -0.5019
      8 O2         -2.0105   -2.6933    0.4398 O.3       1 <0>        -0.3273
      9 C7         -1.9164   -4.1191    0.4312 C.3       1 <0>         0.0904
     10 H1         -0.8992   -4.4146    0.1739 H         1 <0>         0.0860
     11 C8         -2.2700   -4.6619    1.8173 C.3       1 <0>        -0.1338
     12 C9         -3.6977   -4.2472    2.1784 C.3       1 <0>        -0.0875
     13 H2         -3.9496   -4.6339    3.1659 H         1 <0>         0.0669
     14 C10        -4.6712   -4.8164    1.1443 C.3       1 <0>        -0.1099
     15 C11        -4.3176   -4.2736   -0.2418 C.3       1 <0>        -0.0796
     16 C12        -2.8898   -4.6883   -0.6029 C.3       1 <0>        -0.0693
     17 C13        -2.5363   -4.1455   -1.9890 C.3       1 <0>        -0.0750
     18 H3         -2.6080   -3.0579   -1.9825 H         1 <0>         0.0779
     19 C14        -3.5097   -4.7147   -3.0232 C.3       1 <0>        -0.0861
     20 H4         -3.2578   -4.3280   -4.0106 H         1 <0>         0.0711
     21 C15        -4.9374   -4.3000   -2.6620 C.3       1 <0>        -0.1142
     22 C16        -5.2910   -4.8428   -1.2759 C.3       1 <0>        -0.1169
     23 C17        -3.4089   -6.2414   -3.0323 C.3       1 <0>        -0.1552
     24 C18        -1.1085   -4.5602   -2.3502 C.3       1 <0>        -0.1248
     25 C19        -0.7105   -3.9146   -3.6790 C.3       1 <0>        -0.1115
     26 C20         0.7172   -4.3293   -4.0401 C.3       1 <0>         0.1082
     27 C21         1.0735   -3.7824   -5.4250 C.3       1 <0>        -0.1549
     28 C22         2.5176   -4.1642   -5.7656 C.3       1 <0>         0.1088
     29 H5          2.6163   -5.2497   -5.7727 H         1 <0>         0.0669
     30 C23         3.4514   -3.5703   -4.7032 C.3       1 <0>        -0.2045
     31 C24         2.9389   -3.9781   -3.3392 C.2       1 <0>         0.4905
     32 O3          3.6816   -4.4524   -2.5126 O.2       1 <0>        -0.4468
     33 O4          1.6289   -3.7969   -3.0726 O.3       1 <0>        -0.3622
     34 O5          2.8597   -3.6439   -7.0518 O.3       1 <0>        -0.5557
     35 C25        -3.7985   -2.7206    2.1876 C.3       1 <0>        -0.1552
     36 H6          1.4174    1.9213    1.5077 H         1 <0>         0.0589
     37 H7          0.1715    1.9276    0.2365 H         1 <0>         0.0595
     38 H8         -0.3062    1.8857    1.9506 H         1 <0>         0.0596
     39 H9          1.1963   -0.3186    0.4673 H         1 <0>         0.0705
     40 H10         0.7186   -0.3604    2.1814 H         1 <0>         0.0698
     41 H11        -1.9794    1.0585    1.8372 H         1 <0>         0.0741
     42 H12        -2.9467   -0.4042    1.5319 H         1 <0>         0.0729
     43 H13        -1.7008   -0.4104    2.8031 H         1 <0>         0.0595
     44 H14        -0.5525   -0.3099   -1.3171 H         1 <0>         0.0600
     45 H15        -2.2761   -0.3454   -0.8742 H         1 <0>         0.0685
     46 H16        -1.3088    1.1172   -0.5689 H         1 <0>         0.0741
     47 H17        -2.1982   -5.7495    1.8108 H         1 <0>         0.0763
     48 H18        -1.5765   -4.2564    2.5540 H         1 <0>         0.0664
     49 H19        -4.5994   -5.9040    1.1378 H         1 <0>         0.0600
     50 H20        -5.6883   -4.5210    1.4016 H         1 <0>         0.0638
     51 H21        -4.3894   -3.1860   -0.2353 H         1 <0>         0.0830
     52 H22        -2.8180   -5.7759   -0.6095 H         1 <0>         0.0888
     53 H23        -5.0092   -3.2124   -2.6555 H         1 <0>         0.0617
     54 H24        -5.6309   -4.7055   -3.3988 H         1 <0>         0.0609
     55 H25        -5.2192   -5.9304   -1.2824 H         1 <0>         0.0639
     56 H26        -6.3082   -4.5474   -1.0186 H         1 <0>         0.0610
     57 H27        -3.6608   -6.6281   -2.0448 H         1 <0>         0.0605
     58 H28        -4.1023   -6.6469   -3.7691 H         1 <0>         0.0527
     59 H29        -2.3917   -6.5368   -3.2896 H         1 <0>         0.0558
     60 H30        -0.4254   -4.2309   -1.5672 H         1 <0>         0.0724
     61 H31        -1.0579   -5.6450   -2.4438 H         1 <0>         0.0681
     62 H32        -1.3936   -4.2440   -4.4619 H         1 <0>         0.0906
     63 H33        -0.7611   -2.8298   -3.5854 H         1 <0>         0.0774
     64 H34         0.7893   -5.4169   -4.0481 H         1 <0>         0.0783
     65 H35         0.3998   -4.2081   -6.1685 H         1 <0>         0.0982
     66 H36         0.9750   -2.6968   -5.4236 H         1 <0>         0.0907
     67 H37         4.4615   -3.9541   -4.8460 H         1 <0>         0.1068
     68 H38         3.4558   -2.4833   -4.7842 H         1 <0>         0.1172
     69 H39         3.7624   -3.8487   -7.3315 H         1 <0>         0.3855
     70 H40        -3.7429   -2.3466    1.1653 H         1 <0>         0.0866
     71 H41        -4.7476   -2.4218    2.6326 H         1 <0>         0.0451
     72 H42        -2.9769   -2.3057    2.7715 H         1 <0>         0.0469
@<TRIPOS>BOND
     1    1    2 1
     2    1   36 1
     3    1   37 1
     4    1   38 1
     5    2    3 1
     6    2   39 1
     7    2   40 1
     8    3    4 1
     9    3    5 1
    10    3    6 1
    11    4   41 1
    12    4   42 1
    13    4   43 1
    14    5   44 1
    15    5   45 1
    16    5   46 1
    17    6    7 2
    18    6    8 1
    19    8    9 1
    20    9   10 1
    21    9   16 1
    22    9   11 1
    23   11   12 1
    24   11   47 1
    25   11   48 1
    26   12   13 1
    27   12   14 1
    28   12   35 1
    29   14   15 1
    30   14   49 1
    31   14   50 1
    32   15   22 1
    33   15   16 1
    34   15   51 1
    35   16   17 1
    36   16   52 1
    37   17   18 1
    38   17   19 1
    39   17   24 1
    40   19   20 1
    41   19   21 1
    42   19   23 1
    43   21   22 1
    44   21   53 1
    45   21   54 1
    46   22   55 1
    47   22   56 1
    48   23   57 1
    49   23   58 1
    50   23   59 1
    51   24   25 1
    52   24   60 1
    53   24   61 1
    54   25   26 1
    55   25   62 1
    56   25   63 1
    57   26   33 1
    58   26   27 1
    59   26   64 1
    60   27   28 1
    61   27   65 1
    62   27   66 1
    63   28   29 1
    64   28   30 1
    65   28   34 1
    66   30   31 1
    67   30   67 1
    68   30   68 1
    69   31   32 2
    70   31   33 1
    71   34   69 1
    72   35   70 1
    73   35   71 1
    74   35   72 1
@<TRIPOS>MOLECULE
CHEMBL1496
   60    61     0     0     0
SMALL
USER_CHARGES

@<TRIPOS>ATOM
      1 C1         -0.0187    1.5258    0.0104 C.3       1 <0>        -0.1409
      2 C2          0.0021   -0.0041    0.0020 C.3       1 <0>        -0.0463
      3 C3          0.7421   -0.5109    1.2415 C.3       1 <0>        -0.1397
      4 C4         -1.4117   -0.5257    0.0127 C.ar      1 <0>         0.2278
      5 C5         -1.8760   -1.3353   -1.0280 C.ar      1 <0>        -0.1693
      6 C6         -3.2069   -1.7971   -0.9689 C.ar      1 <0>         0.2647
      7 N1         -3.9618   -1.4454    0.0684 N.ar      1 <0>        -0.5246
      8 C7         -3.4757   -0.6762    1.0295 C.ar      1 <0>         0.5493
      9 N2         -2.2276   -0.2284    1.0086 N.ar      1 <0>        -0.5329
     10 N3         -4.2934   -0.3326    2.0912 N.pl3     1 <0>        -0.9075
     11 C8         -3.7783    0.5177    3.1673 C.3       1 <0>         0.0882
     12 S1         -5.8545   -0.8825    2.1458 S.o2      1 <0>         2.6002
     13 O1         -6.5501    0.0779    2.9287 O.2       1 <0>        -0.9460
     14 O2         -6.2087   -1.1036    0.7875 O.2       1 <0>        -0.8995
     15 C9         -5.7616   -2.4623    3.0324 C.3       1 <0>        -0.6666
     16 C10        -3.7545   -2.6574   -2.0425 C.ar      1 <0>        -0.0730
     17 C11        -3.3515   -2.4685   -3.3646 C.ar      1 <0>        -0.0484
     18 C12        -3.8641   -3.2727   -4.3609 C.ar      1 <0>        -0.1588
     19 C13        -4.7781   -4.2672   -4.0503 C.ar      1 <0>         0.1214
     20 C14        -5.1816   -4.4588   -2.7383 C.ar      1 <0>        -0.1645
     21 C15        -4.6707   -3.6632   -1.7342 C.ar      1 <0>        -0.0393
     22 F1         -5.2778   -5.0522   -5.0298 F         1 <0>        -0.1353
     23 C16        -0.9973   -1.6965   -2.1576 C.2       1 <0>        -0.1273
     24 C17        -0.8837   -2.9650   -2.5306 C.2       1 <0>        -0.1484
     25 C18         0.0134   -3.3337   -3.6840 C.3       1 <0>         0.1408
     26 H1         -0.5894   -3.7311   -4.5006 H         1 <0>         0.1118
     27 C19         1.0187   -4.3938   -3.2295 C.3       1 <0>        -0.1809
     28 C20         1.8469   -4.8587   -4.4290 C.3       1 <0>         0.1375
     29 H2          1.1800   -5.2028   -5.2196 H         1 <0>         0.0939
     30 C21         2.7650   -6.0054   -4.0012 C.3       1 <0>        -0.2191
     31 C22         3.4904   -6.5447   -5.2069 C.2       1 <0>         0.4904
     32 O3          3.2916   -6.0571   -6.3066 O.co2     1 <0>        -0.6807
     33 O4          4.2762   -7.4687   -5.0828 O.co2     1 <0>        -0.7130
     34 O5          2.6373   -3.7708   -4.9126 O.3       1 <0>        -0.5275
     35 O6          0.7154   -2.1723   -4.1317 O.3       1 <0>        -0.5365
     36 H3          1.0039    1.9031    0.0027 H         1 <0>         0.0655
     37 H4         -0.5459    1.8868   -0.8726 H         1 <0>         0.0546
     38 H5         -0.5289    1.8773    0.9072 H         1 <0>         0.0648
     39 H6          0.5123   -0.3556   -0.8948 H         1 <0>         0.0972
     40 H7          0.2319   -0.1594    2.1383 H         1 <0>         0.0641
     41 H8          0.7568   -1.6008    1.2356 H         1 <0>         0.0541
     42 H9          1.7647   -0.1336    1.2338 H         1 <0>         0.0655
     43 H10        -3.9626    1.5639    2.9234 H         1 <0>         0.0726
     44 H11        -4.2826    0.2679    4.1007 H         1 <0>         0.0812
     45 H12        -2.7064    0.3539    3.2782 H         1 <0>         0.0952
     46 H13        -5.3578   -2.2954    4.0309 H         1 <0>         0.1267
     47 H14        -6.7594   -2.8939    3.1114 H         1 <0>         0.1345
     48 H15        -5.1117   -3.1471    2.4875 H         1 <0>         0.1302
     49 H16        -2.6396   -1.6936   -3.6076 H         1 <0>         0.1457
     50 H17        -3.5530   -3.1270   -5.3848 H         1 <0>         0.1437
     51 H18        -5.8943   -5.2348   -2.5013 H         1 <0>         0.1394
     52 H19        -4.9823   -3.8161   -0.7115 H         1 <0>         0.1375
     53 H20        -0.4469   -0.9285   -2.6806 H         1 <0>         0.1384
     54 H21        -1.4342   -3.7330   -2.0077 H         1 <0>         0.1159
     55 H22         1.6798   -3.9677   -2.4748 H         1 <0>         0.0647
     56 H23         0.4839   -5.2438   -2.8059 H         1 <0>         0.0752
     57 H24         3.4902   -5.6386   -3.2748 H         1 <0>         0.0563
     58 H25         2.1691   -6.7991   -3.5506 H         1 <0>         0.0608
     59 H26         3.2554   -3.4133   -4.2604 H         1 <0>         0.3500
     60 H27         1.2734   -1.7649   -3.4551 H         1 <0>         0.3660
@<TRIPOS>BOND
     1    1    2 1
     2    1   36 1
     3    1   37 1
     4    1   38 1
     5    2    3 1
     6    2    4 1
     7    2   39 1
     8    3   40 1
     9    3   41 1
    10    3   42 1
    11    4    9 ar
    12    4    5 ar
    13    5    6 ar
    14    5   23 1
    15    6    7 ar
    16    6   16 1
    17    7    8 ar
    18    8    9 ar
    19    8   10 1
    20   10   11 1
    21   10   12 1
    22   11   43 1
    23   11   44 1
    24   11   45 1
    25   12   13 2
    26   12   14 2
    27   12   15 1
    28   15   46 1
    29   15   47 1
    30   15   48 1
    31   16   21 ar
    32   16   17 ar
    33   17   18 ar
    34   17   49 1
    35   18   19 ar
    36   18   50 1
    37   19   20 ar
    38   19   22 1
    39   20   21 ar
    40   20   51 1
    41   21   52 1
    42   23   24 2
    43   23   53 1
    44   24   25 1
    45   24   54 1
    46   25   26 1
    47   25   27 1
    48   25   35 1
    49   27   28 1
    50   27   55 1
    51   27   56 1
    52   28   29 1
    53   28   30 1
    54   28   34 1
    55   30   31 1
    56   30   57 1
    57   30   58 1
    58   31   32 2
    59   31   33 1
    60   34   59 1
    61   35   60 1
@<TRIPOS>MOLECULE
CHEMBL121052
   51    53     0     0     0
SMALL
USER_CHARGES

@<TRIPOS>ATOM
      1 C1         -0.0163    1.3533    0.0095 C.2       1 <0>        -0.1603
      2 C2          1.1752    2.0434    0.0018 C.2       1 <0>        -0.1075
      3 C3          2.3534    1.3199   -0.0133 C.2       1 <0>        -0.1174
      4 S1          1.7509   -0.3607   -0.0166 S.3       1 <0>         0.0810
      5 C4          0.0021   -0.0041    0.0020 C.2       1 <0>        -0.1590
      6 C5          3.7404    1.8074   -0.0244 C.2       1 <0>         0.1148
      7 C6          4.2570    2.8304   -0.8033 C.2       1 <0>         0.0735
      8 N1          5.5633    2.9495   -0.4995 N.2       1 <0>        -0.4131
      9 C7          5.8833    2.0724    0.4099 C.2       1 <0>         0.1193
     10 N2          4.7865    1.3432    0.7417 N.pl3     1 <0>        -0.4135
     11 C8          4.7279    0.2623    1.7288 C.3       1 <0>         0.0837
     12 C9          5.0359   -1.0708    1.0442 C.3       1 <0>        -0.1718
     13 C10         4.9747   -2.1997    2.0752 C.3       1 <0>         0.1189
     14 H1          5.6449   -1.9716    2.9039 H         1 <0>         0.1044
     15 C11         5.4038   -3.5135    1.4189 C.3       1 <0>        -0.1864
     16 C12         5.4626   -4.6168    2.4773 C.3       1 <0>         0.1382
     17 H2          6.1158   -4.3043    3.2920 H         1 <0>         0.0944
     18 C13         6.0106   -5.8990    1.8474 C.3       1 <0>        -0.2196
     19 C14         6.1842   -6.9486    2.9148 C.2       1 <0>         0.4908
     20 O1          5.8963   -6.6946    4.0720 O.co2     1 <0>        -0.6811
     21 O2          6.6125   -8.0516    2.6212 O.co2     1 <0>        -0.7122
     22 O3          4.1495   -4.8595    2.9859 O.3       1 <0>        -0.5274
     23 O4          3.6380   -2.3259    2.5645 O.3       1 <0>        -0.5368
     24 C15         7.2569    1.8976    1.0048 C.3       1 <0>         0.5649
     25 F1          8.0423    3.0146    0.7007 F         1 <0>        -0.1480
     26 F2          7.1504    1.7664    2.3935 F         1 <0>        -0.1657
     27 F3          7.8530    0.7494    0.4722 F         1 <0>        -0.1611
     28 C16         3.5094    3.6434   -1.7895 C.ar      1 <0>        -0.0151
     29 C17         2.4861    3.0653   -2.5413 C.ar      1 <0>        -0.0680
     30 C18         1.7927    3.8270   -3.4588 C.ar      1 <0>        -0.1513
     31 C19         2.1111    5.1641   -3.6345 C.ar      1 <0>         0.1028
     32 C20         3.1268    5.7430   -2.8907 C.ar      1 <0>        -0.1537
     33 C21         3.8221    4.9915   -1.9661 C.ar      1 <0>        -0.0595
     34 F4          1.4290    5.9059   -4.5343 F         1 <0>        -0.1394
     35 H3         -0.9555    1.8862    0.0258 H         1 <0>         0.1407
     36 H4          1.1891    3.1233    0.0071 H         1 <0>         0.1392
     37 H5         -0.8298   -0.6929    0.0066 H         1 <0>         0.1914
     38 H6          5.4622    0.4463    2.5131 H         1 <0>         0.1108
     39 H7          3.7305    0.2240    2.1668 H         1 <0>         0.1146
     40 H8          4.3016   -1.2547    0.2600 H         1 <0>         0.0754
     41 H9          6.0333   -1.0325    0.6063 H         1 <0>         0.0844
     42 H10         4.6829   -3.7872    0.6485 H         1 <0>         0.0647
     43 H11         6.3883   -3.3898    0.9679 H         1 <0>         0.0768
     44 H12         5.3121   -6.2603    1.0927 H         1 <0>         0.0565
     45 H13         6.9740   -5.6919    1.3814 H         1 <0>         0.0616
     46 H14         3.5135   -5.1419    2.3144 H         1 <0>         0.3500
     47 H15         2.9861   -2.5291    1.8798 H         1 <0>         0.3652
     48 H16         2.2375    2.0231   -2.4053 H         1 <0>         0.1337
     49 H17         1.0007    3.3804   -4.0415 H         1 <0>         0.1384
     50 H18         3.3715    6.7854   -3.0318 H         1 <0>         0.1388
     51 H19         4.6104    5.4448   -1.3834 H         1 <0>         0.1393
@<TRIPOS>BOND
     1    1    5 2
     2    1    2 1
     3    1   35 1
     4    2    3 2
     5    2   36 1
     6    3    4 1
     7    3    6 1
     8    4    5 1
     9    5   37 1
    10    6   10 1
    11    6    7 2
    12    7    8 1
    13    7   28 1
    14    8    9 2
    15    9   10 1
    16    9   24 1
    17   10   11 1
    18   11   12 1
    19   11   38 1
    20   11   39 1
    21   12   13 1
    22   12   40 1
    23   12   41 1
    24   13   14 1
    25   13   15 1
    26   13   23 1
    27   15   16 1
    28   15   42 1
    29   15   43 1
    30   16   17 1
    31   16   18 1
    32   16   22 1
    33   18   19 1
    34   18   44 1
    35   18   45 1
    36   19   20 2
    37   19   21 1
    38   22   46 1
    39   23   47 1
    40   24   25 1
    41   24   26 1
    42   24   27 1
    43   28   33 ar
    44   28   29 ar
    45   29   30 ar
    46   29   48 1
    47   30   31 ar
    48   30   49 1
    49   31   32 ar
    50   31   34 1
    51   32   33 ar
    52   32   50 1
    53   33   51 1
@<TRIPOS>MOLECULE
CHEMBL254036
   67    69     0     0     0
SMALL
USER_CHARGES

@<TRIPOS>ATOM
      1 C1         -0.0999    1.5624   -0.2074 C.3       1 <0>        -0.1471
      2 C2         -0.0512    0.0348   -0.1354 C.3       1 <0>        -0.0247
      3 C3          0.8167   -0.3924    1.0500 C.3       1 <0>        -0.1513
      4 C4         -1.4470   -0.5044    0.0437 C.2       1 <0>        -0.1226
      5 C5         -2.0973   -1.4510   -0.7509 C.2       1 <0>         0.0563
      6 N1         -3.2935   -1.6407   -0.2534 N.2       1 <0>        -0.2726
      7 N2         -3.4802   -0.9090    0.7856 N.pl3     1 <0>        -0.2297
      8 C6         -2.3551   -0.1709    1.0348 C.2       1 <0>        -0.0351
      9 C7         -2.1520    0.7861    2.1328 C.2       1 <0>         0.6017
     10 O1         -1.5389    0.4490    3.1278 O.2       1 <0>        -0.5138
     11 N3         -2.6453    2.0367    2.0367 N.am      1 <0>        -0.7131
     12 C8         -2.3488    3.0232    3.0784 C.3       1 <0>         0.1611
     13 C9         -3.0137    4.3313    2.7352 C.ar      1 <0>        -0.1123
     14 C10        -2.3423    5.2688    1.9728 C.ar      1 <0>        -0.0980
     15 C11        -2.9522    6.4687    1.6580 C.ar      1 <0>        -0.1210
     16 C12        -4.2336    6.7310    2.1053 C.ar      1 <0>        -0.1100
     17 C13        -4.9053    5.7932    2.8670 C.ar      1 <0>        -0.1218
     18 C14        -4.2970    4.5915    3.1782 C.ar      1 <0>        -0.0992
     19 C15        -4.6536   -0.8755    1.5496 C.ar      1 <0>         0.1198
     20 C16        -4.5801   -0.8485    2.9361 C.ar      1 <0>        -0.0880
     21 C17        -5.7382   -0.8156    3.6875 C.ar      1 <0>        -0.1331
     22 C18        -6.9725   -0.8095    3.0592 C.ar      1 <0>         0.1094
     23 C19        -7.0480   -0.8364    1.6766 C.ar      1 <0>        -0.1369
     24 C20        -5.8922   -0.8636    0.9214 C.ar      1 <0>        -0.0676
     25 F1         -8.1043   -0.7778    3.7962 F         1 <0>        -0.1317
     26 C21        -1.5240   -2.1329   -1.9663 C.3       1 <0>        -0.0320
     27 C22        -0.8139   -3.4199   -1.5417 C.3       1 <0>        -0.1441
     28 C23        -0.2319   -4.1122   -2.7757 C.3       1 <0>         0.1146
     29 H1         -1.0224   -4.2735   -3.5086 H         1 <0>         0.0977
     30 C24         0.3691   -5.4592   -2.3690 C.3       1 <0>        -0.1871
     31 C25         0.8389   -6.2063   -3.6188 C.3       1 <0>         0.1376
     32 H2          0.0110   -6.2944   -4.3222 H         1 <0>         0.0925
     33 C26         1.3250   -7.6027   -3.2256 C.3       1 <0>        -0.2197
     34 C27         1.6722   -8.3820   -4.4679 C.2       1 <0>         0.4905
     35 O2          1.5429   -7.8681   -5.5659 O.co2     1 <0>        -0.6812
     36 O3          2.0824   -9.5264   -4.3749 O.co2     1 <0>        -0.7139
     37 O4          1.9093   -5.4842   -4.2311 O.3       1 <0>        -0.5281
     38 O5          0.7870   -3.2893   -3.3474 O.3       1 <0>        -0.5420
     39 H3          0.9152    1.9562   -0.2587 H         1 <0>         0.0623
     40 H4         -0.6531    1.8668   -1.0959 H         1 <0>         0.0571
     41 H5         -0.5964    1.9523    0.6811 H         1 <0>         0.0511
     42 H6          0.3748   -0.3590   -1.0582 H         1 <0>         0.0905
     43 H7          0.3478   -0.0681    1.9791 H         1 <0>         0.0655
     44 H8          0.9179   -1.4777    1.0537 H         1 <0>         0.0565
     45 H9          1.8025    0.0642    0.9618 H         1 <0>         0.0589
     46 H10        -3.1967    2.2835    1.2778 H         1 <0>         0.4048
     47 H11        -2.7255    2.6645    4.0363 H         1 <0>         0.0808
     48 H12        -1.2707    3.1697    3.1437 H         1 <0>         0.0817
     49 H13        -1.3412    5.0638    1.6233 H         1 <0>         0.1254
     50 H14        -2.4274    7.2014    1.0629 H         1 <0>         0.1252
     51 H15        -4.7098    7.6688    1.8600 H         1 <0>         0.1237
     52 H16        -5.9063    5.9983    3.2168 H         1 <0>         0.1243
     53 H17        -4.8232    3.8573    3.7701 H         1 <0>         0.1234
     54 H18        -3.6178   -0.8537    3.4264 H         1 <0>         0.1449
     55 H19        -5.6814   -0.7950    4.7658 H         1 <0>         0.1483
     56 H20        -8.0114   -0.8319    1.1886 H         1 <0>         0.1493
     57 H21        -5.9515   -0.8800   -0.1568 H         1 <0>         0.1477
     58 H22        -2.3286   -2.3741   -2.6610 H         1 <0>         0.0807
     59 H23        -0.8107   -1.4681   -2.4533 H         1 <0>         0.0920
     60 H24        -0.0093   -3.1787   -0.8470 H         1 <0>         0.0657
     61 H25        -1.5273   -4.0848   -1.0547 H         1 <0>         0.0710
     62 H26         1.2171   -5.2929   -1.7047 H         1 <0>         0.0622
     63 H27        -0.3856   -6.0528   -1.8531 H         1 <0>         0.0729
     64 H28         2.2082   -7.5153   -2.5928 H         1 <0>         0.0560
     65 H29         0.5369   -8.1214   -2.6798 H         1 <0>         0.0606
     66 H30         2.6818   -5.3676   -3.6611 H         1 <0>         0.3497
     67 H31         1.5243   -3.1040   -2.7499 H         1 <0>         0.3644
@<TRIPOS>BOND
     1    1    2 1
     2    1   39 1
     3    1   40 1
     4    1   41 1
     5    2    3 1
     6    2    4 1
     7    2   42 1
     8    3   43 1
     9    3   44 1
    10    3   45 1
    11    4    8 2
    12    4    5 1
    13    5    6 2
    14    5   26 1
    15    6    7 1
    16    7    8 1
    17    7   19 1
    18    8    9 1
    19    9   10 2
    20    9   11 am
    21   11   12 1
    22   11   46 1
    23   12   13 1
    24   12   47 1
    25   12   48 1
    26   13   18 ar
    27   13   14 ar
    28   14   15 ar
    29   14   49 1
    30   15   16 ar
    31   15   50 1
    32   16   17 ar
    33   16   51 1
    34   17   18 ar
    35   17   52 1
    36   18   53 1
    37   19   24 ar
    38   19   20 ar
    39   20   21 ar
    40   20   54 1
    41   21   22 ar
    42   21   55 1
    43   22   23 ar
    44   22   25 1
    45   23   24 ar
    46   23   56 1
    47   24   57 1
    48   26   27 1
    49   26   58 1
    50   26   59 1
    51   27   28 1
    52   27   60 1
    53   27   61 1
    54   28   29 1
    55   28   30 1
    56   28   38 1
    57   30   31 1
    58   30   62 1
    59   30   63 1
    60   31   32 1
    61   31   33 1
    62   31   37 1
    63   33   34 1
    64   33   64 1
    65   33   65 1
    66   34   35 2
    67   34   36 1
    68   37   66 1
    69   38   67 1
@<TRIPOS>MOLECULE
CHEMBL562679
   67    69     0     0     0
SMALL
USER_CHARGES

@<TRIPOS>ATOM
      1 C1         -0.5403    1.6622   -0.7508 C.3       1 <0>        -0.1636
      2 C2         -0.3931    0.1894   -0.3633 C.3       1 <0>        -0.1129
      3 C3          0.5027   -0.5188   -1.3816 C.3       1 <0>         0.0227
      4 C4          0.5094   -2.0220   -1.0965 C.3       1 <0>        -0.1061
      5 C5          1.2888   -2.7461   -2.1961 C.3       1 <0>        -0.1664
      6 C6         -0.0253   -0.2734   -2.7715 C.ar      1 <0>        -0.0549
      7 C7          0.7691    0.3560   -3.7116 C.ar      1 <0>        -0.1258
      8 C8          0.2847    0.5811   -4.9866 C.ar      1 <0>        -0.1168
      9 C9         -0.9938    0.1763   -5.3217 C.ar      1 <0>        -0.1266
     10 C10        -1.7879   -0.4539   -4.3819 C.ar      1 <0>        -0.1195
     11 C11        -1.3020   -0.6829   -3.1082 C.ar      1 <0>        -0.1159
     12 C12         1.9065    0.0189   -1.2753 C.ar      1 <0>        -0.0727
     13 C13         2.2259    0.9146   -0.2684 C.ar      1 <0>        -0.1110
     14 C14         3.5070    1.4147   -0.1594 C.ar      1 <0>        -0.1165
     15 C15         4.4892    1.0185   -1.0666 C.ar      1 <0>        -0.0299
     16 C16         4.1641    0.1093   -2.0882 C.ar      1 <0>        -0.0468
     17 C17         2.8672   -0.3888   -2.1786 C.ar      1 <0>        -0.1018
     18 C18         5.1971   -0.3206   -3.0600 C.ar      1 <0>        -0.0510
     19 C19         5.9825    0.6294   -3.7119 C.ar      1 <0>        -0.0758
     20 C20         6.9429    0.2244   -4.6156 C.ar      1 <0>        -0.1482
     21 C21         7.1273   -1.1240   -4.8763 C.ar      1 <0>         0.0999
     22 C22         6.3489   -2.0716   -4.2313 C.ar      1 <0>        -0.1521
     23 C23         5.3906   -1.6766   -3.3209 C.ar      1 <0>        -0.0792
     24 F1          8.0687   -1.5159   -5.7625 F         1 <0>        -0.1395
     25 C24         5.8615    1.5508   -0.9550 C.2       1 <0>        -0.1353
     26 C25         6.1637    2.4091    0.0107 C.2       1 <0>        -0.1649
     27 C26         7.5647    2.9526    0.1245 C.3       1 <0>         0.1391
     28 H1          8.0133    2.6084    1.0564 H         1 <0>         0.1097
     29 C27         7.5210    4.4819    0.1139 C.3       1 <0>        -0.1805
     30 C28         8.9275    5.0340    0.3543 C.3       1 <0>         0.1369
     31 H2          9.3284    4.6172    1.2782 H         1 <0>         0.0937
     32 C29         8.8644    6.5585    0.4679 C.3       1 <0>        -0.2191
     33 C30        10.2273    7.0924    0.8262 C.2       1 <0>         0.4904
     34 O1         11.1625    6.3247    0.9768 O.co2     1 <0>        -0.6809
     35 O2         10.3948    8.2920    0.9655 O.co2     1 <0>        -0.7131
     36 O3          9.7744    4.6724   -0.7384 O.3       1 <0>        -0.5277
     37 O4          8.3460    2.4907   -0.9792 O.3       1 <0>        -0.5365
     38 H3          0.4338    2.1491   -0.7049 H         1 <0>         0.0648
     39 H4         -0.9347    1.7335   -1.7644 H         1 <0>         0.0584
     40 H5         -1.2249    2.1531   -0.0592 H         1 <0>         0.0530
     41 H6          0.0556    0.1175    0.6274 H         1 <0>         0.0710
     42 H7         -1.3752   -0.2834   -0.3525 H         1 <0>         0.0671
     43 H8          0.9839   -2.2070   -0.1328 H         1 <0>         0.0684
     44 H9         -0.5156   -2.3921   -1.0738 H         1 <0>         0.0670
     45 H10         1.1466   -3.8220   -2.0940 H         1 <0>         0.0535
     46 H11         0.9261   -2.4227   -3.1718 H         1 <0>         0.0599
     47 H12         2.3490   -2.5096   -2.1060 H         1 <0>         0.0649
     48 H13         1.7680    0.6722   -3.4497 H         1 <0>         0.1347
     49 H14         0.9051    1.0735   -5.7208 H         1 <0>         0.1192
     50 H15        -1.3725    0.3528   -6.3176 H         1 <0>         0.1179
     51 H16        -2.7870   -0.7699   -4.6436 H         1 <0>         0.1187
     52 H17        -1.9210   -1.1786   -2.3751 H         1 <0>         0.1186
     53 H18         1.4673    1.2237    0.4355 H         1 <0>         0.1330
     54 H19         3.7491    2.1132    0.6280 H         1 <0>         0.1267
     55 H20         2.6116   -1.0909   -2.9584 H         1 <0>         0.1364
     56 H21         5.8390    1.6806   -3.5099 H         1 <0>         0.1361
     57 H22         7.5517    0.9594   -5.1211 H         1 <0>         0.1396
     58 H23         6.4960   -3.1214   -4.4379 H         1 <0>         0.1357
     59 H24         4.7876   -2.4162   -2.8151 H         1 <0>         0.1315
     60 H25         6.6196    1.2417   -1.6594 H         1 <0>         0.1334
     61 H26         5.4057    2.7183    0.7151 H         1 <0>         0.1177
     62 H27         7.1550    4.8282   -0.8527 H         1 <0>         0.0639
     63 H28         6.8537    4.8318    0.9015 H         1 <0>         0.0757
     64 H29         8.5478    6.9811   -0.4857 H         1 <0>         0.0564
     65 H30         8.1502    6.8358    1.2432 H         1 <0>         0.0612
     66 H31         9.4777    5.0103   -1.5945 H         1 <0>         0.3499
     67 H32         8.0047    2.7603   -1.8429 H         1 <0>         0.3642
@<TRIPOS>BOND
     1    1    2 1
     2    1   38 1
     3    1   39 1
     4    1   40 1
     5    2    3 1
     6    2   41 1
     7    2   42 1
     8    3    4 1
     9    3    6 1
    10    3   12 1
    11    4    5 1
    12    4   43 1
    13    4   44 1
    14    5   45 1
    15    5   46 1
    16    5   47 1
    17    6   11 ar
    18    6    7 ar
    19    7    8 ar
    20    7   48 1
    21    8    9 ar
    22    8   49 1
    23    9   10 ar
    24    9   50 1
    25   10   11 ar
    26   10   51 1
    27   11   52 1
    28   12   17 ar
    29   12   13 ar
    30   13   14 ar
    31   13   53 1
    32   14   15 ar
    33   14   54 1
    34   15   16 ar
    35   15   25 1
    36   16   17 ar
    37   16   18 1
    38   17   55 1
    39   18   23 ar
    40   18   19 ar
    41   19   20 ar
    42   19   56 1
    43   20   21 ar
    44   20   57 1
    45   21   22 ar
    46   21   24 1
    47   22   23 ar
    48   22   58 1
    49   23   59 1
    50   25   26 2
    51   25   60 1
    52   26   27 1
    53   26   61 1
    54   27   28 1
    55   27   29 1
    56   27   37 1
    57   29   30 1
    58   29   62 1
    59   29   63 1
    60   30   31 1
    61   30   32 1
    62   30   36 1
    63   32   33 1
    64   32   64 1
    65   32   65 1
    66   33   34 2
    67   33   35 1
    68   36   66 1
    69   37   67 1
@<TRIPOS>MOLECULE
CHEMBL123826
   74    77     0     0     0
SMALL
USER_CHARGES

@<TRIPOS>ATOM
      1 C1         -0.0187    1.5258    0.0104 C.3       1 <0>        -0.1380
      2 C2          0.0021   -0.0041    0.0020 C.3       1 <0>        -0.0290
      3 C3          0.7421   -0.5109    1.2415 C.3       1 <0>        -0.1376
      4 C4         -1.4333   -0.5336    0.0129 C.3       1 <0>        -0.1429
      5 C5          0.7074   -0.4901   -1.2379 C.ar      1 <0>        -0.0700
      6 C6          0.0361   -1.2843   -2.1485 C.ar      1 <0>        -0.1309
      7 C7          0.6831   -1.7301   -3.2859 C.ar      1 <0>        -0.1131
      8 C8          2.0014   -1.3813   -3.5127 C.ar      1 <0>        -0.0914
      9 C9          2.6724   -0.5863   -2.6025 C.ar      1 <0>        -0.0571
     10 C10         2.0241   -0.1370   -1.4673 C.ar      1 <0>        -0.1192
     11 C11         2.7070   -1.8681   -4.7521 C.3       1 <0>        -0.0705
     12 C12         2.5119   -0.8545   -5.8815 C.3       1 <0>         0.0014
     13 C13         3.1472   -1.3884   -7.1710 C.3       1 <0>        -0.1129
     14 C14         3.1659   -0.2867   -8.2331 C.3       1 <0>        -0.1175
     15 C15         4.2067    0.7755   -7.8569 C.3       1 <0>        -0.0399
     16 C16         3.9657    1.1853   -6.4255 C.2       1 <0>        -0.2111
     17 C17         3.1919    0.4454   -5.5225 C.2       1 <0>         0.0891
     18 N1          3.1785    1.0680   -4.3774 N.2       1 <0>        -0.2603
     19 N2          3.9452    2.2369   -4.4906 N.pl3     1 <0>        -0.3309
     20 C18         4.4296    2.2973   -5.7702 C.2       1 <0>         0.1231
     21 C19         5.2849    3.3546   -6.3348 C.2       1 <0>        -0.1188
     22 C20         4.9463    4.6312   -6.1898 C.2       1 <0>        -0.1414
     23 C21         5.8216    5.7133   -6.7677 C.3       1 <0>         0.1414
     24 H1          6.2397    6.3129   -5.9591 H         1 <0>         0.1129
     25 C22         4.9874    6.6076   -7.6870 C.3       1 <0>        -0.1813
     26 C23         5.8441    7.7775   -8.1751 C.3       1 <0>         0.1380
     27 H2          6.2613    8.3050   -7.3174 H         1 <0>         0.0940
     28 C24         4.9776    8.7379   -8.9923 C.3       1 <0>        -0.2196
     29 C25         5.7898    9.9501   -9.3692 C.2       1 <0>         0.4908
     30 O1          6.9537   10.0377   -9.0169 O.co2     1 <0>        -0.6809
     31 O2          5.2830   10.8432  -10.0265 O.co2     1 <0>        -0.7125
     32 O3          6.9063    7.2817   -8.9923 O.3       1 <0>        -0.5277
     33 O4          6.8828    5.1180   -7.5170 O.3       1 <0>        -0.5366
     34 C26         4.1745    3.1755   -3.4757 C.ar      1 <0>         0.1503
     35 C27         5.3960    3.8313   -3.3983 C.ar      1 <0>        -0.0968
     36 C28         5.6198    4.7563   -2.3977 C.ar      1 <0>        -0.1303
     37 C29         4.6270    5.0301   -1.4718 C.ar      1 <0>         0.0969
     38 C30         3.4082    4.3768   -1.5470 C.ar      1 <0>        -0.1364
     39 C31         3.1784    3.4552   -2.5496 C.ar      1 <0>        -0.0843
     40 F1          4.8479    5.9354   -0.4936 F         1 <0>        -0.1350
     41 H3          1.0039    1.9031    0.0027 H         1 <0>         0.0565
     42 H4         -0.5459    1.8868   -0.8726 H         1 <0>         0.0553
     43 H5         -0.5289    1.8773    0.9072 H         1 <0>         0.0563
     44 H6          0.2319   -0.1594    2.1383 H         1 <0>         0.0562
     45 H7          0.7568   -1.6008    1.2356 H         1 <0>         0.0549
     46 H8          1.7647   -0.1336    1.2338 H         1 <0>         0.0562
     47 H9         -1.9605   -0.1726   -0.8702 H         1 <0>         0.0576
     48 H10        -1.4185   -1.6235    0.0069 H         1 <0>         0.0573
     49 H11        -1.9435   -0.1821    0.9097 H         1 <0>         0.0558
     50 H12        -0.9938   -1.5568   -1.9713 H         1 <0>         0.1198
     51 H13         0.1588   -2.3512   -3.9970 H         1 <0>         0.1150
     52 H14         3.7024   -0.3141   -2.7796 H         1 <0>         0.1166
     53 H15         2.5473    0.4872   -0.7580 H         1 <0>         0.1119
     54 H16         3.7711   -1.9799   -4.5441 H         1 <0>         0.0713
     55 H17         2.2923   -2.8305   -5.0520 H         1 <0>         0.0777
     56 H18         1.4475   -0.6811   -6.0398 H         1 <0>         0.0898
     57 H19         4.1679   -1.7111   -6.9656 H         1 <0>         0.0689
     58 H20         2.5670   -2.2352   -7.5374 H         1 <0>         0.0722
     59 H21         3.4224   -0.7194   -9.2001 H         1 <0>         0.0694
     60 H22         2.1808    0.1759   -8.2931 H         1 <0>         0.0640
     61 H23         5.2092    0.3595   -7.9565 H         1 <0>         0.0713
     62 H24         4.1007    1.6416   -8.5102 H         1 <0>         0.0717
     63 H25         6.1875    3.0924   -6.8668 H         1 <0>         0.1461
     64 H26         4.0437    4.8934   -5.6579 H         1 <0>         0.1131
     65 H27         4.6427    6.0276   -8.5431 H         1 <0>         0.0656
     66 H28         4.1274    6.9912   -7.1381 H         1 <0>         0.0755
     67 H29         4.6326    8.2362   -9.8964 H         1 <0>         0.0568
     68 H30         4.1180    9.0471   -8.3978 H         1 <0>         0.0611
     69 H31         6.6078    6.8001   -9.7759 H         1 <0>         0.3506
     70 H32         6.5836    4.5688   -8.2546 H         1 <0>         0.3679
     71 H33         6.1706    3.6178   -4.1200 H         1 <0>         0.1436
     72 H34         6.5699    5.2663   -2.3369 H         1 <0>         0.1467
     73 H35         2.6354    4.5914   -0.8238 H         1 <0>         0.1425
     74 H36         2.2261    2.9495   -2.6108 H         1 <0>         0.1409
@<TRIPOS>BOND
     1    1    2 1
     2    1   41 1
     3    1   42 1
     4    1   43 1
     5    2    3 1
     6    2    4 1
     7    2    5 1
     8    3   44 1
     9    3   45 1
    10    3   46 1
    11    4   47 1
    12    4   48 1
    13    4   49 1
    14    5   10 ar
    15    5    6 ar
    16    6    7 ar
    17    6   50 1
    18    7    8 ar
    19    7   51 1
    20    8    9 ar
    21    8   11 1
    22    9   10 ar
    23    9   52 1
    24   10   53 1
    25   11   12 1
    26   11   54 1
    27   11   55 1
    28   12   17 1
    29   12   13 1
    30   12   56 1
    31   13   14 1
    32   13   57 1
    33   13   58 1
    34   14   15 1
    35   14   59 1
    36   14   60 1
    37   15   16 1
    38   15   61 1
    39   15   62 1
    40   16   20 2
    41   16   17 1
    42   17   18 2
    43   18   19 1
    44   19   20 1
    45   19   34 1
    46   20   21 1
    47   21   22 2
    48   21   63 1
    49   22   23 1
    50   22   64 1
    51   23   24 1
    52   23   25 1
    53   23   33 1
    54   25   26 1
    55   25   65 1
    56   25   66 1
    57   26   27 1
    58   26   28 1
    59   26   32 1
    60   28   29 1
    61   28   67 1
    62   28   68 1
    63   29   30 2
    64   29   31 1
    65   32   69 1
    66   33   70 1
    67   34   39 ar
    68   34   35 ar
    69   35   36 ar
    70   35   71 1
    71   36   37 ar
    72   36   72 1
    73   37   38 ar
    74   37   40 1
    75   38   39 ar
    76   38   73 1
    77   39   74 1
@<TRIPOS>MOLECULE
CHEMBL123826__1
   74    77     0     0     0
SMALL
USER_CHARGES

@<TRIPOS>ATOM
      1 C1         -0.0187    1.5258    0.0104 C.3       1 <0>        -0.1373
      2 C2          0.0021   -0.0041    0.0020 C.3       1 <0>        -0.0290
      3 C3          0.7421   -0.5109    1.2415 C.3       1 <0>        -0.1372
      4 C4         -1.4333   -0.5336    0.0129 C.3       1 <0>        -0.1438
      5 C5          0.7074   -0.4901   -1.2379 C.ar      1 <0>        -0.0691
      6 C6          0.0361   -1.2843   -2.1485 C.ar      1 <0>        -0.1251
      7 C7          0.6831   -1.7301   -3.2859 C.ar      1 <0>        -0.0598
      8 C8          2.0014   -1.3813   -3.5127 C.ar      1 <0>        -0.0905
      9 C9          2.6724   -0.5863   -2.6025 C.ar      1 <0>        -0.1126
     10 C10         2.0241   -0.1370   -1.4673 C.ar      1 <0>        -0.1245
     11 C11         2.7070   -1.8681   -4.7521 C.3       1 <0>        -0.0711
     12 C12         2.5119   -0.8545   -5.8815 C.3       1 <0>         0.0017
     13 C13         3.3054   -1.2974   -7.1167 C.3       1 <0>        -0.1134
     14 C14         2.9270   -0.4241   -8.3151 C.3       1 <0>        -0.1173
     15 C15         1.5093   -0.7760   -8.7833 C.3       1 <0>        -0.0397
     16 C16         0.5970   -0.7524   -7.5824 C.2       1 <0>        -0.2107
     17 C17         1.0507   -0.7863   -6.2578 C.2       1 <0>         0.0890
     18 N1          0.0185   -0.7503   -5.4626 N.2       1 <0>        -0.2602
     19 N2         -1.1476   -0.6937   -6.2396 N.pl3     1 <0>        -0.3311
     20 C18        -0.7732   -0.6961   -7.5570 C.2       1 <0>         0.1230
     21 C19        -1.6705   -0.6472   -8.7235 C.2       1 <0>        -0.1183
     22 C20        -2.6974   -1.4862   -8.8074 C.2       1 <0>        -0.1422
     23 C21        -3.6157   -1.4362  -10.0012 C.3       1 <0>         0.1414
     24 H1         -4.6121   -1.1320   -9.6807 H         1 <0>         0.1128
     25 C22        -3.6884   -2.8213  -10.6471 C.3       1 <0>        -0.1811
     26 C23        -4.7147   -2.8018  -11.7816 C.3       1 <0>         0.1379
     27 H2         -5.6727   -2.4499  -11.3989 H         1 <0>         0.0939
     28 C24        -4.8787   -4.2146  -12.3454 C.3       1 <0>        -0.2194
     29 C25        -5.9765   -4.2192  -13.3778 C.2       1 <0>         0.4907
     30 O1         -6.5725   -3.1881  -13.6384 O.co2     1 <0>        -0.6809
     31 O2         -6.2686   -5.2541  -13.9523 O.co2     1 <0>        -0.7125
     32 O3         -4.2642   -1.9252  -12.8164 O.3       1 <0>        -0.5277
     33 O4         -3.1122   -0.4939  -10.9503 O.3       1 <0>        -0.5367
     34 C26        -2.4613   -0.6439   -5.7547 C.ar      1 <0>         0.1520
     35 C27        -3.4260    0.0881   -6.4342 C.ar      1 <0>        -0.0967
     36 C28        -4.7202    0.1356   -5.9548 C.ar      1 <0>        -0.1294
     37 C29        -5.0563   -0.5464   -4.7973 C.ar      1 <0>         0.0966
     38 C30        -4.0956   -1.2767   -4.1179 C.ar      1 <0>        -0.1360
     39 C31        -2.8016   -1.3313   -4.5971 C.ar      1 <0>        -0.0881
     40 F1         -6.3230   -0.4988   -4.3300 F         1 <0>        -0.1349
     41 H3          1.0039    1.9031    0.0027 H         1 <0>         0.0554
     42 H4         -0.5459    1.8868   -0.8726 H         1 <0>         0.0555
     43 H5         -0.5289    1.8773    0.9072 H         1 <0>         0.0560
     44 H6          0.2319   -0.1594    2.1383 H         1 <0>         0.0561
     45 H7          0.7568   -1.6008    1.2356 H         1 <0>         0.0553
     46 H8          1.7647   -0.1336    1.2338 H         1 <0>         0.0556
     47 H9         -1.9605   -0.1726   -0.8702 H         1 <0>         0.0585
     48 H10        -1.4185   -1.6235    0.0069 H         1 <0>         0.0576
     49 H11        -1.9435   -0.1821    0.9097 H         1 <0>         0.0560
     50 H12        -0.9938   -1.5568   -1.9713 H         1 <0>         0.1179
     51 H13         0.1588   -2.3512   -3.9970 H         1 <0>         0.1161
     52 H14         3.7024   -0.3141   -2.7796 H         1 <0>         0.1153
     53 H15         2.5473    0.4872   -0.7580 H         1 <0>         0.1141
     54 H16         3.7711   -1.9799   -4.5441 H         1 <0>         0.0781
     55 H17         2.2923   -2.8305   -5.0520 H         1 <0>         0.0716
     56 H18         2.8541    0.1280   -5.5567 H         1 <0>         0.0899
     57 H19         4.3722   -1.1968   -6.9174 H         1 <0>         0.0724
     58 H20         3.0759   -2.3392   -7.3406 H         1 <0>         0.0690
     59 H21         2.9629    0.6258   -8.0245 H         1 <0>         0.0641
     60 H22         3.6315   -0.5991   -9.1282 H         1 <0>         0.0694
     61 H23         1.1715   -0.0433   -9.5162 H         1 <0>         0.0720
     62 H24         1.5054   -1.7710   -9.2285 H         1 <0>         0.0712
     63 H25        -1.4939    0.0706   -9.5109 H         1 <0>         0.1461
     64 H26        -2.8740   -2.2040   -8.0200 H         1 <0>         0.1132
     65 H27        -2.7099   -3.0876  -11.0469 H         1 <0>         0.0657
     66 H28        -3.9874   -3.5557   -9.8992 H         1 <0>         0.0754
     67 H29        -3.9439   -4.5321  -12.8076 H         1 <0>         0.0568
     68 H30        -5.1361   -4.9003  -11.5382 H         1 <0>         0.0611
     69 H31        -3.4152   -2.1781  -13.2041 H         1 <0>         0.3506
     70 H32        -2.2272   -0.7020  -11.2796 H         1 <0>         0.3678
     71 H33        -3.1641    0.6204   -7.3367 H         1 <0>         0.1436
     72 H34        -5.4707    0.7051   -6.4829 H         1 <0>         0.1469
     73 H35        -4.3596   -1.8076   -3.2152 H         1 <0>         0.1429
     74 H36        -2.0538   -1.9049   -4.0697 H         1 <0>         0.1398
@<TRIPOS>BOND
     1    1    2 1
     2    1   41 1
     3    1   42 1
     4    1   43 1
     5    2    3 1
     6    2    4 1
     7    2    5 1
     8    3   44 1
     9    3   45 1
    10    3   46 1
    11    4   47 1
    12    4   48 1
    13    4   49 1
    14    5   10 ar
    15    5    6 ar
    16    6    7 ar
    17    6   50 1
    18    7    8 ar
    19    7   51 1
    20    8    9 ar
    21    8   11 1
    22    9   10 ar
    23    9   52 1
    24   10   53 1
    25   11   12 1
    26   11   54 1
    27   11   55 1
    28   12   17 1
    29   12   13 1
    30   12   56 1
    31   13   14 1
    32   13   57 1
    33   13   58 1
    34   14   15 1
    35   14   59 1
    36   14   60 1
    37   15   16 1
    38   15   61 1
    39   15   62 1
    40   16   20 2
    41   16   17 1
    42   17   18 2
    43   18   19 1
    44   19   20 1
    45   19   34 1
    46   20   21 1
    47   21   22 2
    48   21   63 1
    49   22   23 1
    50   22   64 1
    51   23   24 1
    52   23   25 1
    53   23   33 1
    54   25   26 1
    55   25   65 1
    56   25   66 1
    57   26   27 1
    58   26   28 1
    59   26   32 1
    60   28   29 1
    61   28   67 1
    62   28   68 1
    63   29   30 2
    64   29   31 1
    65   32   69 1
    66   33   70 1
    67   34   39 ar
    68   34   35 ar
    69   35   36 ar
    70   35   71 1
    71   36   37 ar
    72   36   72 1
    73   37   38 ar
    74   37   40 1
    75   38   39 ar
    76   38   73 1
    77   39   74 1
@<TRIPOS>MOLECULE
CHEMBL310463
   90    93     0     0     0
SMALL
USER_CHARGES

@<TRIPOS>ATOM
      1 C1         -0.3289    1.9763   -0.7978 C.3       1 <0>        -0.1558
      2 C2         -0.3181    0.4664   -0.5506 C.3       1 <0>        -0.1024
      3 C3         -1.7496   -0.0704   -0.6098 C.3       1 <0>        -0.0568
      4 C4         -2.5965    0.6161    0.4637 C.3       1 <0>        -0.1426
      5 C5         -2.3450    0.2162   -1.9898 C.3       1 <0>        -0.1289
      6 C6         -1.7389   -1.5575   -0.3664 C.2       1 <0>         0.4713
      7 O1         -0.6935   -2.1294   -0.1660 O.2       1 <0>        -0.5078
      8 O2         -2.8906   -2.2469   -0.3721 O.3       1 <0>        -0.3344
      9 C7         -2.8061   -3.6536   -0.1341 C.3       1 <0>         0.0938
     10 H1         -1.8502   -4.0268   -0.4979 H         1 <0>         0.0915
     11 C8         -2.8397   -3.8606    1.3900 C.3       1 <0>        -0.1329
     12 C9         -2.6876   -5.3476    1.7052 C.3       1 <0>        -0.1041
     13 H2         -1.7407   -5.7117    1.3070 H         1 <0>         0.0894
     14 C10        -3.8435   -6.1214    1.0699 C.3       1 <0>         0.1166
     15 H3         -3.7184   -7.1869    1.2806 H         1 <0>         0.0909
     16 C11        -3.8535   -5.9010   -0.4381 C.3       1 <0>        -0.0739
     17 H4         -4.7097   -6.4202   -0.8762 H         1 <0>         0.0885
     18 C12        -3.9636   -4.4053   -0.7698 C.3       1 <0>        -0.0595
     19 C13        -4.0706   -4.2649   -2.2774 C.3       1 <0>        -0.0696
     20 H5         -5.0150   -4.7820   -2.5752 H         1 <0>         0.0636
     21 C14        -2.9518   -4.9347   -3.0541 C.3       1 <0>        -0.0833
     22 H6         -3.2932   -5.0125   -4.1113 H         1 <0>         0.0647
     23 C15        -2.6639   -6.3524   -2.5827 C.3       1 <0>        -0.1100
     24 C16        -2.5667   -6.4423   -1.0624 C.3       1 <0>        -0.1172
     25 C17        -1.6815   -4.0901   -3.0710 C.3       1 <0>        -0.1573
     26 C18        -4.2325   -2.8118   -2.7184 C.3       1 <0>        -0.1168
     27 C19        -4.4581   -2.7600   -4.2308 C.3       1 <0>        -0.1196
     28 C20        -4.6203   -1.3042   -4.6726 C.3       1 <0>         0.1109
     29 C21        -4.9647   -1.2579   -6.1637 C.3       1 <0>        -0.1538
     30 C22        -5.0856    0.2022   -6.6118 C.3       1 <0>         0.1045
     31 H7         -5.3182    0.2394   -7.6760 H         1 <0>         0.0771
     32 C23        -3.7511    0.9127   -6.3523 C.3       1 <0>        -0.2068
     33 C24        -3.3556    0.6691   -4.9123 C.2       1 <0>         0.4952
     34 O3         -3.0136    1.5821   -4.1987 O.2       1 <0>        -0.4473
     35 O4         -3.3955   -0.5971   -4.4482 O.3       1 <0>        -0.3614
     36 O5         -6.1251    0.8455   -5.8718 O.3       1 <0>        -0.5630
     37 O6         -5.0813   -5.6801    1.6327 O.3       1 <0>        -0.3532
     38 C25        -5.5202   -6.3282    2.7281 C.2       1 <0>         0.6466
     39 O7         -4.8705   -7.2433    3.1937 O.2       1 <0>        -0.5653
     40 N1         -6.6803   -5.9619    3.3083 N.am      1 <0>        -0.7074
     41 C26        -7.1578   -6.6671    4.5003 C.3       1 <0>         0.1809
     42 C27        -8.4663   -6.0681    4.9478 C.ar      1 <0>        -0.1148
     43 C28        -8.4741   -5.0156    5.8439 C.ar      1 <0>        -0.0972
     44 C29        -9.6743   -4.4662    6.2544 C.ar      1 <0>        -0.1218
     45 C30       -10.8667   -4.9690    5.7684 C.ar      1 <0>        -0.1080
     46 C31       -10.8589   -6.0209    4.8715 C.ar      1 <0>        -0.1220
     47 C32        -9.6585   -6.5675    4.4578 C.ar      1 <0>        -0.0973
     48 C33        -2.7108   -5.5532    3.2219 C.3       1 <0>        -0.1427
     49 H8          0.6909    2.3587   -0.7555 H         1 <0>         0.0567
     50 H9         -0.7531    2.1805   -1.7808 H         1 <0>         0.0638
     51 H10        -0.9323    2.4653   -0.0330 H         1 <0>         0.0581
     52 H11         0.2853   -0.0226   -1.3153 H         1 <0>         0.0685
     53 H12         0.1061    0.2622    0.4325 H         1 <0>         0.0669
     54 H13        -2.6042    1.6917    0.2876 H         1 <0>         0.0745
     55 H14        -3.6163    0.2337    0.4214 H         1 <0>         0.0675
     56 H15        -2.1723    0.4119    1.4467 H         1 <0>         0.0564
     57 H16        -1.7416   -0.2728   -2.7545 H         1 <0>         0.0569
     58 H17        -3.3648   -0.1662   -2.0320 H         1 <0>         0.0652
     59 H18        -2.3527    1.2919   -2.1659 H         1 <0>         0.0839
     60 H19        -2.0186   -3.3040    1.8408 H         1 <0>         0.0680
     61 H20        -3.7878   -3.4936    1.7784 H         1 <0>         0.0755
     62 H21        -4.9020   -4.0371   -0.3207 H         1 <0>         0.0849
     63 H22        -3.4604   -7.0190   -2.9300 H         1 <0>         0.0620
     64 H23        -1.7210   -6.6960   -3.0216 H         1 <0>         0.0664
     65 H24        -1.7104   -5.8735   -0.7078 H         1 <0>         0.0710
     66 H25        -2.4412   -7.4888   -0.7704 H         1 <0>         0.0678
     67 H26        -1.2742   -4.0264   -2.0620 H         1 <0>         0.0565
     68 H27        -0.9469   -4.5518   -3.7308 H         1 <0>         0.0519
     69 H28        -1.9157   -3.0888   -3.4322 H         1 <0>         0.0636
     70 H29        -5.0886   -2.3705   -2.2081 H         1 <0>         0.0643
     71 H30        -3.3314   -2.2530   -2.4661 H         1 <0>         0.0878
     72 H31        -3.6020   -3.2013   -4.7412 H         1 <0>         0.0793
     73 H32        -5.3592   -3.3188   -4.4832 H         1 <0>         0.0835
     74 H33        -5.4207   -0.8368   -4.0990 H         1 <0>         0.0846
     75 H34        -4.1768   -1.7494   -6.7344 H         1 <0>         0.0943
     76 H35        -5.9115   -1.7702   -6.3343 H         1 <0>         0.0961
     77 H36        -2.9858    0.5113   -7.0165 H         1 <0>         0.1161
     78 H37        -3.8647    1.9828   -6.5261 H         1 <0>         0.1062
     79 H38        -6.2567    1.7747   -6.1050 H         1 <0>         0.3857
     80 H39        -7.1989   -5.2313    2.9366 H         1 <0>         0.4075
     81 H40        -7.3025   -7.7215    4.2650 H         1 <0>         0.0802
     82 H41        -6.4221   -6.5706    5.2987 H         1 <0>         0.0799
     83 H42        -7.5425   -4.6228    6.2236 H         1 <0>         0.1247
     84 H43        -9.6804   -3.6444    6.9550 H         1 <0>         0.1255
     85 H44       -11.8045   -4.5402    6.0896 H         1 <0>         0.1246
     86 H45       -11.7905   -6.4140    4.4921 H         1 <0>         0.1255
     87 H46        -9.6523   -7.3869    3.7542 H         1 <0>         0.1249
     88 H47        -3.6577   -5.1920    3.6231 H         1 <0>         0.0490
     89 H48        -2.6023   -6.6143    3.4464 H         1 <0>         0.0694
     90 H49        -1.8890   -4.9998    3.6762 H         1 <0>         0.0542
@<TRIPOS>BOND
     1    1    2 1
     2    1   49 1
     3    1   50 1
     4    1   51 1
     5    2    3 1
     6    2   52 1
     7    2   53 1
     8    3    4 1
     9    3    5 1
    10    3    6 1
    11    4   54 1
    12    4   55 1
    13    4   56 1
    14    5   57 1
    15    5   58 1
    16    5   59 1
    17    6    7 2
    18    6    8 1
    19    8    9 1
    20    9   10 1
    21    9   18 1
    22    9   11 1
    23   11   12 1
    24   11   60 1
    25   11   61 1
    26   12   13 1
    27   12   14 1
    28   12   48 1
    29   14   15 1
    30   14   16 1
    31   14   37 1
    32   16   17 1
    33   16   24 1
    34   16   18 1
    35   18   19 1
    36   18   62 1
    37   19   20 1
    38   19   21 1
    39   19   26 1
    40   21   22 1
    41   21   23 1
    42   21   25 1
    43   23   24 1
    44   23   63 1
    45   23   64 1
    46   24   65 1
    47   24   66 1
    48   25   67 1
    49   25   68 1
    50   25   69 1
    51   26   27 1
    52   26   70 1
    53   26   71 1
    54   27   28 1
    55   27   72 1
    56   27   73 1
    57   28   35 1
    58   28   29 1
    59   28   74 1
    60   29   30 1
    61   29   75 1
    62   29   76 1
    63   30   31 1
    64   30   32 1
    65   30   36 1
    66   32   33 1
    67   32   77 1
    68   32   78 1
    69   33   34 2
    70   33   35 1
    71   36   79 1
    72   37   38 1
    73   38   39 2
    74   38   40 am
    75   40   41 1
    76   40   80 1
    77   41   42 1
    78   41   81 1
    79   41   82 1
    80   42   47 ar
    81   42   43 ar
    82   43   44 ar
    83   43   83 1
    84   44   45 ar
    85   44   84 1
    86   45   46 ar
    87   45   85 1
    88   46   47 ar
    89   46   86 1
    90   47   87 1
    91   48   88 1
    92   48   89 1
    93   48   90 1
@<TRIPOS>MOLECULE
CHEMBL310463__1
   90    93     0     0     0
SMALL
USER_CHARGES

@<TRIPOS>ATOM
      1 C1         -0.3289    1.9763   -0.7978 C.3       1 <0>        -0.1564
      2 C2         -0.3181    0.4664   -0.5506 C.3       1 <0>        -0.1050
      3 C3         -1.7496   -0.0704   -0.6098 C.3       1 <0>        -0.0511
      4 C4         -2.5965    0.6161    0.4636 C.3       1 <0>        -0.1455
      5 C5         -2.3450    0.2162   -1.9898 C.3       1 <0>        -0.1498
      6 C6         -1.7389   -1.5575   -0.3664 C.2       1 <0>         0.4684
      7 O1         -0.6936   -2.1294   -0.1660 O.2       1 <0>        -0.5038
      8 O2         -2.8906   -2.2469   -0.3721 O.3       1 <0>        -0.3336
      9 C7         -2.8061   -3.6536   -0.1341 C.3       1 <0>         0.0942
     10 H1         -1.8502   -4.0268   -0.4979 H         1 <0>         0.0922
     11 C8         -2.8397   -3.8606    1.3900 C.3       1 <0>        -0.1331
     12 C9         -2.6876   -5.3476    1.7052 C.3       1 <0>        -0.1038
     13 H2         -1.7407   -5.7117    1.3070 H         1 <0>         0.0895
     14 C10        -3.8436   -6.1213    1.0699 C.3       1 <0>         0.1162
     15 H3         -3.7185   -7.1869    1.2806 H         1 <0>         0.0912
     16 C11        -3.8535   -5.9010   -0.4381 C.3       1 <0>        -0.0742
     17 H4         -4.7097   -6.4202   -0.8762 H         1 <0>         0.0892
     18 C12        -3.9637   -4.4052   -0.7698 C.3       1 <0>        -0.0600
     19 C13        -4.0706   -4.2649   -2.2774 C.3       1 <0>        -0.0705
     20 H5         -5.0150   -4.7820   -2.5752 H         1 <0>         0.0666
     21 C14        -2.9518   -4.9347   -3.0541 C.3       1 <0>        -0.0854
     22 H6         -3.2932   -5.0125   -4.1113 H         1 <0>         0.0661
     23 C15        -2.6639   -6.3524   -2.5827 C.3       1 <0>        -0.1100
     24 C16        -2.5667   -6.4423   -1.0624 C.3       1 <0>        -0.1171
     25 C17        -1.6815   -4.0901   -3.0710 C.3       1 <0>        -0.1564
     26 C18        -4.2325   -2.8118   -2.7184 C.3       1 <0>        -0.1148
     27 C19        -4.4581   -2.7600   -4.2308 C.3       1 <0>        -0.1180
     28 C20        -4.6203   -1.3042   -4.6727 C.3       1 <0>         0.1094
     29 C21        -4.7262   -1.2419   -6.1987 C.3       1 <0>        -0.1565
     30 C22        -4.9300    0.2126   -6.6347 C.3       1 <0>         0.1089
     31 H7         -4.0808    0.8137   -6.3096 H         1 <0>         0.0667
     32 C23        -6.2152    0.7479   -5.9905 C.3       1 <0>        -0.2058
     33 C24        -6.1467    0.4824   -4.5025 C.2       1 <0>         0.4912
     34 O3         -6.3858    1.3566   -3.7035 O.2       1 <0>        -0.4473
     35 O4         -5.8109   -0.7587   -4.0935 O.3       1 <0>        -0.3613
     36 O5         -5.0434    0.2744   -8.0578 O.3       1 <0>        -0.5556
     37 O6         -5.0813   -5.6800    1.6327 O.3       1 <0>        -0.3531
     38 C25        -5.5202   -6.3281    2.7281 C.2       1 <0>         0.6467
     39 O7         -4.8705   -7.2433    3.1937 O.2       1 <0>        -0.5655
     40 N1         -6.6803   -5.9618    3.3083 N.am      1 <0>        -0.7072
     41 C26        -7.1579   -6.6671    4.5003 C.3       1 <0>         0.1810
     42 C27        -8.4663   -6.0681    4.9477 C.ar      1 <0>        -0.1150
     43 C28        -8.4741   -5.0156    5.8439 C.ar      1 <0>        -0.0972
     44 C29        -9.6743   -4.4662    6.2544 C.ar      1 <0>        -0.1217
     45 C30       -10.8667   -4.9690    5.7684 C.ar      1 <0>        -0.1079
     46 C31       -10.8589   -6.0209    4.8715 C.ar      1 <0>        -0.1219
     47 C32        -9.6585   -6.5675    4.4578 C.ar      1 <0>        -0.0973
     48 C33        -2.7108   -5.5532    3.2219 C.3       1 <0>        -0.1429
     49 H8          0.6909    2.3587   -0.7556 H         1 <0>         0.0598
     50 H9         -0.7531    2.1805   -1.7809 H         1 <0>         0.0592
     51 H10        -0.9323    2.4653   -0.0330 H         1 <0>         0.0604
     52 H11         0.2853   -0.0226   -1.3153 H         1 <0>         0.0707
     53 H12         0.1061    0.2623    0.4325 H         1 <0>         0.0709
     54 H13        -2.6043    1.6917    0.2875 H         1 <0>         0.0755
     55 H14        -3.6164    0.2337    0.4214 H         1 <0>         0.0710
     56 H15        -2.1723    0.4119    1.4467 H         1 <0>         0.0598
     57 H16        -1.7416   -0.2728   -2.7545 H         1 <0>         0.0589
     58 H17        -3.3648   -0.1662   -2.0320 H         1 <0>         0.0734
     59 H18        -2.3527    1.2919   -2.1659 H         1 <0>         0.0754
     60 H19        -2.0186   -3.3040    1.8408 H         1 <0>         0.0681
     61 H20        -3.7879   -3.4936    1.7784 H         1 <0>         0.0763
     62 H21        -4.9020   -4.0371   -0.3207 H         1 <0>         0.0865
     63 H22        -3.4604   -7.0190   -2.9300 H         1 <0>         0.0630
     64 H23        -1.7210   -6.6960   -3.0216 H         1 <0>         0.0670
     65 H24        -1.7104   -5.8735   -0.7078 H         1 <0>         0.0708
     66 H25        -2.4412   -7.4888   -0.7704 H         1 <0>         0.0683
     67 H26        -1.2742   -4.0264   -2.0620 H         1 <0>         0.0581
     68 H27        -0.9469   -4.5518   -3.7308 H         1 <0>         0.0546
     69 H28        -1.9157   -3.0888   -3.4322 H         1 <0>         0.0566
     70 H29        -5.0886   -2.3705   -2.2081 H         1 <0>         0.0754
     71 H30        -3.3314   -2.2530   -2.4661 H         1 <0>         0.0753
     72 H31        -3.6020   -3.2013   -4.7412 H         1 <0>         0.0903
     73 H32        -5.3592   -3.3188   -4.4832 H         1 <0>         0.0785
     74 H33        -3.7573   -0.7255   -4.3432 H         1 <0>         0.0782
     75 H34        -3.8094   -1.6296   -6.6430 H         1 <0>         0.0977
     76 H35        -5.5733   -1.8428   -6.5293 H         1 <0>         0.0912
     77 H36        -6.2966    1.8201   -6.1690 H         1 <0>         0.1066
     78 H37        -7.0794    0.2374   -6.4155 H         1 <0>         0.1173
     79 H38        -5.1744    1.1679   -8.4035 H         1 <0>         0.3854
     80 H39        -7.1990   -5.2313    2.9366 H         1 <0>         0.4078
     81 H40        -7.3025   -7.7215    4.2650 H         1 <0>         0.0802
     82 H41        -6.4221   -6.5705    5.2987 H         1 <0>         0.0799
     83 H42        -7.5425   -4.6228    6.2236 H         1 <0>         0.1247
     84 H43        -9.6804   -3.6443    6.9550 H         1 <0>         0.1255
     85 H44       -11.8045   -4.5402    6.0896 H         1 <0>         0.1247
     86 H45       -11.7906   -6.4139    4.4921 H         1 <0>         0.1256
     87 H46        -9.6523   -7.3869    3.7542 H         1 <0>         0.1249
     88 H47        -3.6577   -5.1919    3.6231 H         1 <0>         0.0493
     89 H48        -2.6023   -6.6143    3.4464 H         1 <0>         0.0697
     90 H49        -1.8890   -4.9998    3.6762 H         1 <0>         0.0541
@<TRIPOS>BOND
     1    1    2 1
     2    1   49 1
     3    1   50 1
     4    1   51 1
     5    2    3 1
     6    2   52 1
     7    2   53 1
     8    3    4 1
     9    3    5 1
    10    3    6 1
    11    4   54 1
    12    4   55 1
    13    4   56 1
    14    5   57 1
    15    5   58 1
    16    5   59 1
    17    6    7 2
    18    6    8 1
    19    8    9 1
    20    9   10 1
    21    9   18 1
    22    9   11 1
    23   11   12 1
    24   11   60 1
    25   11   61 1
    26   12   13 1
    27   12   14 1
    28   12   48 1
    29   14   15 1
    30   14   16 1
    31   14   37 1
    32   16   17 1
    33   16   24 1
    34   16   18 1
    35   18   19 1
    36   18   62 1
    37   19   20 1
    38   19   21 1
    39   19   26 1
    40   21   22 1
    41   21   23 1
    42   21   25 1
    43   23   24 1
    44   23   63 1
    45   23   64 1
    46   24   65 1
    47   24   66 1
    48   25   67 1
    49   25   68 1
    50   25   69 1
    51   26   27 1
    52   26   70 1
    53   26   71 1
    54   27   28 1
    55   27   72 1
    56   27   73 1
    57   28   35 1
    58   28   29 1
    59   28   74 1
    60   29   30 1
    61   29   75 1
    62   29   76 1
    63   30   31 1
    64   30   32 1
    65   30   36 1
    66   32   33 1
    67   32   77 1
    68   32   78 1
    69   33   34 2
    70   33   35 1
    71   36   79 1
    72   37   38 1
    73   38   39 2
    74   38   40 am
    75   40   41 1
    76   40   80 1
    77   41   42 1
    78   41   81 1
    79   41   82 1
    80   42   47 ar
    81   42   43 ar
    82   43   44 ar
    83   43   83 1
    84   44   45 ar
    85   44   84 1
    86   45   46 ar
    87   45   85 1
    88   46   47 ar
    89   46   86 1
    90   47   87 1
    91   48   88 1
    92   48   89 1
    93   48   90 1
@<TRIPOS>MOLECULE
CHEMBL310463__2
   90    93     0     0     0
SMALL
USER_CHARGES

@<TRIPOS>ATOM
      1 C1          0.4341    1.5484    1.2287 C.3       1 <0>        -0.1559
      2 C2          0.4579    0.0188    1.1979 C.3       1 <0>        -0.1057
      3 C3         -0.9233   -0.5047    0.7987 C.3       1 <0>        -0.0520
      4 C4         -1.9621   -0.0311    1.8172 C.3       1 <0>        -0.1488
      5 C5         -1.2892    0.0277   -0.5882 C.3       1 <0>        -0.1438
      6 C6         -0.8999   -2.0112    0.7684 C.2       1 <0>         0.4647
      7 O1          0.1170   -2.6052    1.0383 O.2       1 <0>        -0.5038
      8 O2         -2.0089   -2.6932    0.4415 O.3       1 <0>        -0.3268
      9 C7         -1.9147   -4.1190    0.4329 C.3       1 <0>         0.0876
     10 H1         -0.8973   -4.4145    0.1766 H         1 <0>         0.0917
     11 C8         -2.2696   -4.6619    1.8186 C.3       1 <0>        -0.1309
     12 C9         -3.6977   -4.2472    2.1784 C.3       1 <0>        -0.1047
     13 H2         -3.9506   -4.6340    3.1656 H         1 <0>         0.0750
     14 C10        -4.6702   -4.8163    1.1433 C.3       1 <0>         0.1193
     15 H3         -4.5984   -5.9039    1.1368 H         1 <0>         0.0843
     16 C11        -4.3153   -4.2735   -0.2424 C.3       1 <0>        -0.0740
     17 H4         -4.3870   -3.1859   -0.2359 H         1 <0>         0.0953
     18 C12        -2.8871   -4.6882   -0.6022 C.3       1 <0>        -0.0680
     19 C13        -2.5322   -4.1453   -1.9879 C.3       1 <0>        -0.0719
     20 H5         -2.6040   -3.0577   -1.9814 H         1 <0>         0.0796
     21 C14        -3.5046   -4.7144   -3.0230 C.3       1 <0>        -0.0855
     22 H6         -3.2518   -4.3276   -4.0102 H         1 <0>         0.0735
     23 C15        -4.9328   -4.2997   -2.6632 C.3       1 <0>        -0.1125
     24 C16        -5.2877   -4.8426   -1.2775 C.3       1 <0>        -0.1165
     25 C17        -3.4039   -6.2410   -3.0322 C.3       1 <0>        -0.1570
     26 C18        -1.1041   -4.5600   -2.3477 C.3       1 <0>        -0.1242
     27 C19        -0.7049   -3.9142   -3.6761 C.3       1 <0>        -0.1131
     28 C20         0.7232   -4.3289   -4.0358 C.3       1 <0>         0.1094
     29 C21         1.1666   -3.5899   -5.3012 C.3       1 <0>        -0.1532
     30 C22         2.5812   -4.0385   -5.6819 C.3       1 <0>         0.1039
     31 H7          2.8955   -3.5239   -6.5899 H         1 <0>         0.0792
     32 C23         2.5723   -5.5529   -5.9264 C.3       1 <0>        -0.2048
     33 C24         1.9410   -6.2239   -4.7262 C.2       1 <0>         0.4956
     34 O3          2.4739   -7.1659   -4.1890 O.2       1 <0>        -0.4529
     35 O4          0.7657   -5.7404   -4.2733 O.3       1 <0>        -0.3664
     36 O5          3.4842   -3.7281   -4.6187 O.3       1 <0>        -0.5632
     37 O6         -6.0040   -4.4290    1.4794 O.3       1 <0>        -0.3513
     38 C25        -6.6966   -5.2570    2.2841 C.2       1 <0>         0.6455
     39 O7         -6.1825   -6.2805    2.6899 O.2       1 <0>        -0.5693
     40 N1         -7.9600   -4.9507    2.6394 N.am      1 <0>        -0.7065
     41 C26        -8.7136   -5.8516    3.5150 C.3       1 <0>         0.1802
     42 C27       -10.0880   -5.2831    3.7575 C.ar      1 <0>        -0.1144
     43 C28       -10.3052   -4.4309    4.8240 C.ar      1 <0>        -0.0973
     44 C29       -11.5659   -3.9094    5.0465 C.ar      1 <0>        -0.1219
     45 C30       -12.6094   -4.2398    4.2022 C.ar      1 <0>        -0.1081
     46 C31       -12.3920   -5.0914    3.1352 C.ar      1 <0>        -0.1219
     47 C32       -11.1303   -5.6094    2.9102 C.ar      1 <0>        -0.0972
     48 C33        -3.7985   -2.7206    2.1876 C.3       1 <0>        -0.1484
     49 H8          1.4181    1.9213    1.5131 H         1 <0>         0.0592
     50 H9          0.1734    1.9277    0.2406 H         1 <0>         0.0598
     51 H10        -0.3060    1.8857    1.9543 H         1 <0>         0.0597
     52 H11         1.1980   -0.3185    0.4723 H         1 <0>         0.0707
     53 H12         0.7186   -0.3605    2.1859 H         1 <0>         0.0701
     54 H13        -1.9790    1.0585    1.8392 H         1 <0>         0.0747
     55 H14        -2.9461   -0.4041    1.5329 H         1 <0>         0.0735
     56 H15        -1.7014   -0.4104    2.8053 H         1 <0>         0.0598
     57 H16        -0.5491   -0.3097   -1.3138 H         1 <0>         0.0599
     58 H17        -2.2731   -0.3453   -0.8726 H         1 <0>         0.0696
     59 H18        -1.3061    1.1174   -0.5663 H         1 <0>         0.0748
     60 H19        -2.1978   -5.7495    1.8121 H         1 <0>         0.0823
     61 H20        -1.5769   -4.2565    2.5561 H         1 <0>         0.0755
     62 H21        -2.8153   -5.7758   -0.6087 H         1 <0>         0.0947
     63 H22        -5.0046   -3.2121   -2.6567 H         1 <0>         0.0631
     64 H23        -5.6255   -4.7051   -3.4006 H         1 <0>         0.0628
     65 H24        -5.2159   -5.9302   -1.2840 H         1 <0>         0.0642
     66 H25        -6.3051   -4.5471   -1.0212 H         1 <0>         0.0672
     67 H26        -3.6567   -6.6278   -2.0450 H         1 <0>         0.0582
     68 H27        -4.0966   -6.6465   -3.7696 H         1 <0>         0.0525
     69 H28        -2.3865   -6.5365   -3.2885 H         1 <0>         0.0618
     70 H29        -0.4218   -4.2306   -1.5640 H         1 <0>         0.0628
     71 H30        -1.0534   -5.6448   -2.4413 H         1 <0>         0.0789
     72 H31        -1.3872   -4.2436   -4.4597 H         1 <0>         0.0802
     73 H32        -0.7556   -2.8295   -3.5824 H         1 <0>         0.0845
     74 H33         1.3932   -4.0779   -3.2135 H         1 <0>         0.0838
     75 H34         0.4804   -3.8202   -6.1162 H         1 <0>         0.0956
     76 H35         1.1634   -2.5159   -5.1151 H         1 <0>         0.0971
     77 H36         1.9911   -5.7773   -6.8208 H         1 <0>         0.1180
     78 H37         3.5942   -5.9108   -6.0522 H         1 <0>         0.1073
     79 H38         4.3999   -3.9854   -4.7927 H         1 <0>         0.3863
     80 H39        -8.3704   -4.1336    2.3154 H         1 <0>         0.4078
     81 H40        -8.8031   -6.8288    3.0404 H         1 <0>         0.0801
     82 H41        -8.1906   -5.9560    4.4656 H         1 <0>         0.0799
     83 H42        -9.4899   -4.1728    5.4837 H         1 <0>         0.1249
     84 H43       -11.7357   -3.2442    5.8802 H         1 <0>         0.1255
     85 H44       -13.5945   -3.8330    4.3764 H         1 <0>         0.1246
     86 H45       -13.2074   -5.3498    2.4757 H         1 <0>         0.1256
     87 H46       -10.9597   -6.2717    2.0744 H         1 <0>         0.1250
     88 H47        -3.7429   -2.3466    1.1653 H         1 <0>         0.0875
     89 H48        -4.7476   -2.4218    2.6326 H         1 <0>         0.0487
     90 H49        -2.9769   -2.3057    2.7715 H         1 <0>         0.0490
@<TRIPOS>BOND
     1    1    2 1
     2    1   49 1
     3    1   50 1
     4    1   51 1
     5    2    3 1
     6    2   52 1
     7    2   53 1
     8    3    4 1
     9    3    5 1
    10    3    6 1
    11    4   54 1
    12    4   55 1
    13    4   56 1
    14    5   57 1
    15    5   58 1
    16    5   59 1
    17    6    7 2
    18    6    8 1
    19    8    9 1
    20    9   10 1
    21    9   18 1
    22    9   11 1
    23   11   12 1
    24   11   60 1
    25   11   61 1
    26   12   13 1
    27   12   14 1
    28   12   48 1
    29   14   15 1
    30   14   16 1
    31   14   37 1
    32   16   17 1
    33   16   24 1
    34   16   18 1
    35   18   19 1
    36   18   62 1
    37   19   20 1
    38   19   21 1
    39   19   26 1
    40   21   22 1
    41   21   23 1
    42   21   25 1
    43   23   24 1
    44   23   63 1
    45   23   64 1
    46   24   65 1
    47   24   66 1
    48   25   67 1
    49   25   68 1
    50   25   69 1
    51   26   27 1
    52   26   70 1
    53   26   71 1
    54   27   28 1
    55   27   72 1
    56   27   73 1
    57   28   35 1
    58   28   29 1
    59   28   74 1
    60   29   30 1
    61   29   75 1
    62   29   76 1
    63   30   31 1
    64   30   32 1
    65   30   36 1
    66   32   33 1
    67   32   77 1
    68   32   78 1
    69   33   34 2
    70   33   35 1
    71   36   79 1
    72   37   38 1
    73   38   39 2
    74   38   40 am
    75   40   41 1
    76   40   80 1
    77   41   42 1
    78   41   81 1
    79   41   82 1
    80   42   47 ar
    81   42   43 ar
    82   43   44 ar
    83   43   83 1
    84   44   45 ar
    85   44   84 1
    86   45   46 ar
    87   45   85 1
    88   46   47 ar
    89   46   86 1
    90   47   87 1
    91   48   88 1
    92   48   89 1
    93   48   90 1
@<TRIPOS>MOLECULE
CHEMBL310463__3
   90    93     0     0     0
SMALL
USER_CHARGES

@<TRIPOS>ATOM
      1 C1          0.4341    1.5484    1.2287 C.3       1 <0>        -0.1556
      2 C2          0.4579    0.0188    1.1979 C.3       1 <0>        -0.1059
      3 C3         -0.9233   -0.5047    0.7987 C.3       1 <0>        -0.0513
      4 C4         -1.9621   -0.0311    1.8172 C.3       1 <0>        -0.1485
      5 C5         -1.2892    0.0277   -0.5882 C.3       1 <0>        -0.1434
      6 C6         -0.8999   -2.0112    0.7684 C.2       1 <0>         0.4644
      7 O1          0.1170   -2.6052    1.0383 O.2       1 <0>        -0.5000
      8 O2         -2.0089   -2.6932    0.4415 O.3       1 <0>        -0.3277
      9 C7         -1.9147   -4.1190    0.4329 C.3       1 <0>         0.0873
     10 H1         -0.8973   -4.4145    0.1766 H         1 <0>         0.0925
     11 C8         -2.2696   -4.6619    1.8186 C.3       1 <0>        -0.1308
     12 C9         -3.6977   -4.2472    2.1784 C.3       1 <0>        -0.1047
     13 H2         -3.9506   -4.6340    3.1656 H         1 <0>         0.0748
     14 C10        -4.6702   -4.8163    1.1433 C.3       1 <0>         0.1197
     15 H3         -4.5984   -5.9039    1.1368 H         1 <0>         0.0840
     16 C11        -4.3153   -4.2735   -0.2424 C.3       1 <0>        -0.0746
     17 H4         -4.3870   -3.1859   -0.2359 H         1 <0>         0.0956
     18 C12        -2.8871   -4.6882   -0.6022 C.3       1 <0>        -0.0674
     19 C13        -2.5322   -4.1453   -1.9879 C.3       1 <0>        -0.0726
     20 H5         -2.6040   -3.0577   -1.9814 H         1 <0>         0.0813
     21 C14        -3.5046   -4.7144   -3.0230 C.3       1 <0>        -0.0872
     22 H6         -3.2518   -4.3276   -4.0102 H         1 <0>         0.0740
     23 C15        -4.9328   -4.2997   -2.6632 C.3       1 <0>        -0.1126
     24 C16        -5.2877   -4.8426   -1.2775 C.3       1 <0>        -0.1164
     25 C17        -3.4039   -6.2410   -3.0322 C.3       1 <0>        -0.1563
     26 C18        -1.1041   -4.5600   -2.3477 C.3       1 <0>        -0.1251
     27 C19        -0.7049   -3.9142   -3.6761 C.3       1 <0>        -0.1113
     28 C20         0.7232   -4.3289   -4.0358 C.3       1 <0>         0.1081
     29 C21         1.0809   -3.7819   -5.4203 C.3       1 <0>        -0.1550
     30 C22         2.5253   -4.1637   -5.7596 C.3       1 <0>         0.1087
     31 H7          2.6239   -5.2492   -5.7667 H         1 <0>         0.0669
     32 C23         3.4580   -3.5699   -4.6963 C.3       1 <0>        -0.2046
     33 C24         2.9442   -3.9778   -3.3328 C.2       1 <0>         0.4906
     34 O3          3.6861   -4.4521   -2.5055 O.2       1 <0>        -0.4465
     35 O4          1.6339   -3.7966   -3.0675 O.3       1 <0>        -0.3623
     36 O5          2.8686   -3.6433   -7.0454 O.3       1 <0>        -0.5557
     37 O6         -6.0040   -4.4290    1.4794 O.3       1 <0>        -0.3513
     38 C25        -6.6966   -5.2570    2.2841 C.2       1 <0>         0.6456
     39 O7         -6.1825   -6.2805    2.6899 O.2       1 <0>        -0.5696
     40 N1         -7.9600   -4.9507    2.6394 N.am      1 <0>        -0.7065
     41 C26        -8.7136   -5.8516    3.5150 C.3       1 <0>         0.1803
     42 C27       -10.0880   -5.2831    3.7575 C.ar      1 <0>        -0.1146
     43 C28       -10.3052   -4.4309    4.8240 C.ar      1 <0>        -0.0973
     44 C29       -11.5659   -3.9094    5.0465 C.ar      1 <0>        -0.1218
     45 C30       -12.6094   -4.2398    4.2022 C.ar      1 <0>        -0.1081
     46 C31       -12.3920   -5.0914    3.1352 C.ar      1 <0>        -0.1219
     47 C32       -11.1303   -5.6094    2.9102 C.ar      1 <0>        -0.0973
     48 C33        -3.7985   -2.7206    2.1876 C.3       1 <0>        -0.1485
     49 H8          1.4181    1.9213    1.5131 H         1 <0>         0.0589
     50 H9          0.1734    1.9277    0.2406 H         1 <0>         0.0596
     51 H10        -0.3060    1.8857    1.9543 H         1 <0>         0.0596
     52 H11         1.1980   -0.3185    0.4723 H         1 <0>         0.0708
     53 H12         0.7186   -0.3605    2.1859 H         1 <0>         0.0699
     54 H13        -1.9790    1.0585    1.8392 H         1 <0>         0.0744
     55 H14        -2.9461   -0.4041    1.5329 H         1 <0>         0.0732
     56 H15        -1.7014   -0.4104    2.8053 H         1 <0>         0.0596
     57 H16        -0.5491   -0.3097   -1.3138 H         1 <0>         0.0604
     58 H17        -2.2731   -0.3453   -0.8726 H         1 <0>         0.0690
     59 H18        -1.3061    1.1174   -0.5663 H         1 <0>         0.0742
     60 H19        -2.1978   -5.7495    1.8121 H         1 <0>         0.0815
     61 H20        -1.5769   -4.2565    2.5561 H         1 <0>         0.0756
     62 H21        -2.8153   -5.7758   -0.6087 H         1 <0>         0.0937
     63 H22        -5.0046   -3.2121   -2.6567 H         1 <0>         0.0639
     64 H23        -5.6255   -4.7051   -3.4006 H         1 <0>         0.0632
     65 H24        -5.2159   -5.9302   -1.2840 H         1 <0>         0.0639
     66 H25        -6.3051   -4.5471   -1.0212 H         1 <0>         0.0675
     67 H26        -3.6567   -6.6278   -2.0450 H         1 <0>         0.0597
     68 H27        -4.0966   -6.6465   -3.7696 H         1 <0>         0.0540
     69 H28        -2.3865   -6.5365   -3.2885 H         1 <0>         0.0572
     70 H29        -0.4218   -4.2306   -1.5640 H         1 <0>         0.0736
     71 H30        -1.0534   -5.6448   -2.4413 H         1 <0>         0.0697
     72 H31        -1.3872   -4.2436   -4.4597 H         1 <0>         0.0912
     73 H32        -0.7556   -2.8295   -3.5824 H         1 <0>         0.0782
     74 H33         0.7953   -5.4165   -4.0439 H         1 <0>         0.0786
     75 H34         0.4078   -4.2076   -6.1645 H         1 <0>         0.0982
     76 H35         0.9824   -2.6964   -5.4190 H         1 <0>         0.0908
     77 H36         4.4683   -3.9537   -4.8381 H         1 <0>         0.1068
     78 H37         3.4625   -2.4829   -4.7771 H         1 <0>         0.1172
     79 H38         3.7715   -3.8482   -7.3243 H         1 <0>         0.3855
     80 H39        -8.3704   -4.1336    2.3154 H         1 <0>         0.4078
     81 H40        -8.8031   -6.8288    3.0404 H         1 <0>         0.0801
     82 H41        -8.1906   -5.9560    4.4656 H         1 <0>         0.0799
     83 H42        -9.4899   -4.1728    5.4837 H         1 <0>         0.1249
     84 H43       -11.7357   -3.2442    5.8802 H         1 <0>         0.1256
     85 H44       -13.5945   -3.8330    4.3764 H         1 <0>         0.1247
     86 H45       -13.2074   -5.3498    2.4757 H         1 <0>         0.1256
     87 H46       -10.9597   -6.2717    2.0744 H         1 <0>         0.1250
     88 H47        -3.7429   -2.3466    1.1653 H         1 <0>         0.0876
     89 H48        -4.7476   -2.4218    2.6326 H         1 <0>         0.0485
     90 H49        -2.9769   -2.3057    2.7715 H         1 <0>         0.0492
@<TRIPOS>BOND
     1    1    2 1
     2    1   49 1
     3    1   50 1
     4    1   51 1
     5    2    3 1
     6    2   52 1
     7    2   53 1
     8    3    4 1
     9    3    5 1
    10    3    6 1
    11    4   54 1
    12    4   55 1
    13    4   56 1
    14    5   57 1
    15    5   58 1
    16    5   59 1
    17    6    7 2
    18    6    8 1
    19    8    9 1
    20    9   10 1
    21    9   18 1
    22    9   11 1
    23   11   12 1
    24   11   60 1
    25   11   61 1
    26   12   13 1
    27   12   14 1
    28   12   48 1
    29   14   15 1
    30   14   16 1
    31   14   37 1
    32   16   17 1
    33   16   24 1
    34   16   18 1
    35   18   19 1
    36   18   62 1
    37   19   20 1
    38   19   21 1
    39   19   26 1
    40   21   22 1
    41   21   23 1
    42   21   25 1
    43   23   24 1
    44   23   63 1
    45   23   64 1
    46   24   65 1
    47   24   66 1
    48   25   67 1
    49   25   68 1
    50   25   69 1
    51   26   27 1
    52   26   70 1
    53   26   71 1
    54   27   28 1
    55   27   72 1
    56   27   73 1
    57   28   35 1
    58   28   29 1
    59   28   74 1
    60   29   30 1
    61   29   75 1
    62   29   76 1
    63   30   31 1
    64   30   32 1
    65   30   36 1
    66   32   33 1
    67   32   77 1
    68   32   78 1
    69   33   34 2
    70   33   35 1
    71   36   79 1
    72   37   38 1
    73   38   39 2
    74   38   40 am
    75   40   41 1
    76   40   80 1
    77   41   42 1
    78   41   81 1
    79   41   82 1
    80   42   47 ar
    81   42   43 ar
    82   43   44 ar
    83   43   83 1
    84   44   45 ar
    85   44   84 1
    86   45   46 ar
    87   45   85 1
    88   46   47 ar
    89   46   86 1
    90   47   87 1
    91   48   88 1
    92   48   89 1
    93   48   90 1
@<TRIPOS>MOLECULE
CHEMBL398551
   81    84     0     0     0
SMALL
USER_CHARGES

@<TRIPOS>ATOM
      1 C1         -0.5583   -2.0374   -8.5322 C.3       1 <0>        -0.0937
      2 C2         -0.2675   -2.2252   -7.0655 C.2       1 <0>         0.0831
      3 C3         -0.1602   -3.4089   -6.4186 C.2       1 <0>        -0.2567
      4 C4          0.1153   -3.1410   -5.0738 C.2       1 <0>         0.0546
      5 N1          0.1713   -1.8431   -4.9188 N.2       1 <0>        -0.2755
      6 N2         -0.0618   -1.2432   -6.1630 N.pl3     1 <0>        -0.3679
      7 C5         -0.0821    0.1960   -6.4358 C.3       1 <0>         0.0979
      8 C6          0.3127   -4.1697   -3.9903 C.3       1 <0>         0.2039
      9 N3          1.7433   -4.4417   -3.8299 N.am      1 <0>        -0.7149
     10 C7          2.1605   -5.3352   -2.9112 C.2       1 <0>         0.6046
     11 O1          1.3576   -5.8514   -2.1557 O.2       1 <0>        -0.5171
     12 C8          3.5794   -5.6851   -2.8219 C.2       1 <0>        -0.0285
     13 C9          4.1958   -6.7727   -3.4283 C.2       1 <0>        -0.0585
     14 C10         5.5669   -6.7152   -3.0692 C.2       1 <0>        -0.1226
     15 C11         5.7361   -5.6205   -2.2749 C.2       1 <0>         0.0725
     16 N4          4.5450   -4.9927   -2.1269 N.pl3     1 <0>        -0.4025
     17 C12         4.3195   -3.7727   -1.3479 C.3       1 <0>         0.1195
     18 C13         3.8510   -2.6525   -2.2788 C.3       1 <0>        -0.1732
     19 C14         3.2487   -4.0355   -0.2871 C.3       1 <0>        -0.1704
     20 C15         7.0404   -5.1762   -1.6646 C.3       1 <0>        -0.0519
     21 C16         7.2103   -5.8306   -0.2921 C.3       1 <0>        -0.1476
     22 C17         8.5346   -5.3796    0.3275 C.3       1 <0>         0.1139
     23 H1          9.3507   -5.5967   -0.3616 H         1 <0>         0.0985
     24 C18         8.7639   -6.1284    1.6418 C.3       1 <0>        -0.1867
     25 C19        10.1436   -5.7711    2.1983 C.3       1 <0>         0.1377
     26 H2         10.9035   -5.9745    1.4439 H         1 <0>         0.0927
     27 C20        10.4243   -6.6127    3.4449 C.3       1 <0>        -0.2194
     28 C21        11.8297   -6.3508    3.9217 C.2       1 <0>         0.4905
     29 O2         12.5409   -5.5640    3.3203 O.co2     1 <0>        -0.6813
     30 O3         12.2556   -6.9258    4.9089 O.co2     1 <0>        -0.7133
     31 O4         10.1737   -4.3846    2.5430 O.3       1 <0>        -0.5282
     32 O5          8.4871   -3.9742    0.5820 O.3       1 <0>        -0.5420
     33 C22         6.6232   -7.6714   -3.4825 C.ar      1 <0>        -0.0089
     34 C23         7.2552   -8.4690   -2.5304 C.ar      1 <0>        -0.0797
     35 C24         8.2369   -9.3573   -2.9194 C.ar      1 <0>        -0.1496
     36 C25         8.5947   -9.4566   -4.2540 C.ar      1 <0>         0.0944
     37 C26         7.9691   -8.6657   -5.2039 C.ar      1 <0>        -0.1528
     38 C27         6.9823   -7.7788   -4.8247 C.ar      1 <0>        -0.0742
     39 F1          9.5569  -10.3271   -4.6303 F         1 <0>        -0.1421
     40 C28         3.5477   -7.7932   -4.2831 C.ar      1 <0>        -0.0088
     41 C29         3.4777   -9.1203   -3.8588 C.ar      1 <0>        -0.0943
     42 C30         2.8720  -10.0665   -4.6597 C.ar      1 <0>        -0.1183
     43 C31         2.3346   -9.7015   -5.8812 C.ar      1 <0>        -0.1217
     44 C32         2.4012   -8.3871   -6.3077 C.ar      1 <0>        -0.1201
     45 C33         2.9992   -7.4305   -5.5134 C.ar      1 <0>        -0.1073
     46 H3          0.3787   -2.0168   -9.0886 H         1 <0>         0.0817
     47 H4         -1.1747   -2.8626   -8.8890 H         1 <0>         0.0877
     48 H5         -1.0894   -1.0971   -8.6798 H         1 <0>         0.0707
     49 H6         -0.2684   -4.3876   -6.8623 H         1 <0>         0.1500
     50 H7         -1.0942    0.5773   -6.3003 H         1 <0>         0.0761
     51 H8          0.5932    0.7056   -5.7484 H         1 <0>         0.0914
     52 H9          0.2397    0.3760   -7.4615 H         1 <0>         0.0883
     53 H10        -0.0926   -3.7913   -3.0518 H         1 <0>         0.0849
     54 H11        -0.2036   -5.0897   -4.2643 H         1 <0>         0.0917
     55 H12         2.3902   -3.9787   -4.3849 H         1 <0>         0.4042
     56 H13         5.2483   -3.4757   -0.8608 H         1 <0>         0.1096
     57 H14         2.8665   -2.8986   -2.6766 H         1 <0>         0.0699
     58 H15         3.7944   -1.7171   -1.7219 H         1 <0>         0.0795
     59 H16         4.5583   -2.5436   -3.1009 H         1 <0>         0.0656
     60 H17         3.5726   -4.8489    0.3623 H         1 <0>         0.0672
     61 H18         3.0972   -3.1345    0.3072 H         1 <0>         0.0775
     62 H19         2.3136   -4.3105   -0.7750 H         1 <0>         0.0717
     63 H20         7.8647   -5.4729   -2.3132 H         1 <0>         0.0899
     64 H21         7.0384   -4.0920   -1.5525 H         1 <0>         0.0799
     65 H22         6.3860   -5.5340    0.3565 H         1 <0>         0.0622
     66 H23         7.2123   -6.9148   -0.4043 H         1 <0>         0.0762
     67 H24         7.9967   -5.8427    2.3615 H         1 <0>         0.0616
     68 H25         8.7116   -7.2022    1.4621 H         1 <0>         0.0740
     69 H26         9.7182   -6.3447    4.2308 H         1 <0>         0.0557
     70 H27        10.3140   -7.6695    3.2021 H         1 <0>         0.0610
     71 H28         9.5221   -4.1311    3.2111 H         1 <0>         0.3493
     72 H29         7.7828   -3.7079    1.1888 H         1 <0>         0.3629
     73 H30         6.9774   -8.3917   -1.4896 H         1 <0>         0.1323
     74 H31         8.7272   -9.9758   -2.1822 H         1 <0>         0.1362
     75 H32         8.2514   -8.7462   -6.2433 H         1 <0>         0.1324
     76 H33         6.4920   -7.1658   -5.5665 H         1 <0>         0.1284
     77 H34         3.8972   -9.4065   -2.9057 H         1 <0>         0.1208
     78 H35         2.8175  -11.0943   -4.3326 H         1 <0>         0.1209
     79 H36         1.8615  -10.4458   -6.5045 H         1 <0>         0.1185
     80 H37         1.9805   -8.1084   -7.2626 H         1 <0>         0.1195
     81 H38         3.0466   -6.4039   -5.8454 H         1 <0>         0.1166
@<TRIPOS>BOND
     1    1    2 1
     2    1   46 1
     3    1   47 1
     4    1   48 1
     5    2    6 1
     6    2    3 2
     7    3    4 1
     8    3   49 1
     9    4    5 2
    10    4    8 1
    11    5    6 1
    12    6    7 1
    13    7   50 1
    14    7   51 1
    15    7   52 1
    16    8    9 1
    17    8   53 1
    18    8   54 1
    19    9   10 am
    20    9   55 1
    21   10   11 2
    22   10   12 1
    23   12   16 1
    24   12   13 2
    25   13   14 1
    26   13   40 1
    27   14   15 2
    28   14   33 1
    29   15   16 1
    30   15   20 1
    31   16   17 1
    32   17   18 1
    33   17   19 1
    34   17   56 1
    35   18   57 1
    36   18   58 1
    37   18   59 1
    38   19   60 1
    39   19   61 1
    40   19   62 1
    41   20   21 1
    42   20   63 1
    43   20   64 1
    44   21   22 1
    45   21   65 1
    46   21   66 1
    47   22   23 1
    48   22   24 1
    49   22   32 1
    50   24   25 1
    51   24   67 1
    52   24   68 1
    53   25   26 1
    54   25   27 1
    55   25   31 1
    56   27   28 1
    57   27   69 1
    58   27   70 1
    59   28   29 2
    60   28   30 1
    61   31   71 1
    62   32   72 1
    63   33   38 ar
    64   33   34 ar
    65   34   35 ar
    66   34   73 1
    67   35   36 ar
    68   35   74 1
    69   36   37 ar
    70   36   39 1
    71   37   38 ar
    72   37   75 1
    73   38   76 1
    74   40   45 ar
    75   40   41 ar
    76   41   42 ar
    77   41   77 1
    78   42   43 ar
    79   42   78 1
    80   43   44 ar
    81   43   79 1
    82   44   45 ar
    83   44   80 1
    84   45   81 1
@<TRIPOS>MOLECULE
CHEMBL333687
   73    77     0     0     0
SMALL
USER_CHARGES

@<TRIPOS>ATOM
      1 C1          0.5014    0.8156    0.0121 C.3       1 <0>        -0.1513
      2 C2          0.1561   -0.6427   -0.2963 C.3       1 <0>        -0.0366
      3 C3          0.8933   -1.5593    0.6821 C.3       1 <0>        -0.1497
      4 C4         -1.3301   -0.8478   -0.1543 C.2       1 <0>         0.0992
      5 C5         -2.0526   -0.6387    0.9870 C.2       1 <0>        -0.2077
      6 C6         -3.4500   -0.9642    0.6580 C.2       1 <0>        -0.0668
      7 C7         -3.4450   -1.3455   -0.6699 C.2       1 <0>         0.0660
      8 N1         -2.1577   -1.2606   -1.1334 N.pl3     1 <0>        -0.4211
      9 C8         -1.7400   -1.5781   -2.5012 C.3       1 <0>         0.0957
     10 C9         -1.2314   -3.0200   -2.5574 C.3       1 <0>        -0.1345
     11 C10        -0.8930   -3.3854   -4.0041 C.3       1 <0>         0.1128
     12 H1         -1.7619   -3.2064   -4.6374 H         1 <0>         0.0907
     13 C11        -0.5013   -4.8635   -4.0797 C.3       1 <0>        -0.1520
     14 C12        -0.1233   -5.2155   -5.5220 C.3       1 <0>         0.1046
     15 H2          0.1686   -6.2642   -5.5774 H         1 <0>         0.0821
     16 C13         1.0524   -4.3312   -5.9566 C.3       1 <0>        -0.2045
     17 C14         0.6908   -2.8890   -5.6761 C.2       1 <0>         0.4967
     18 O1          0.8350   -2.0366   -6.5202 O.2       1 <0>        -0.4479
     19 O2          0.2022   -2.5815   -4.4566 O.3       1 <0>        -0.3704
     20 O3         -1.2423   -4.9841   -6.3802 O.3       1 <0>        -0.5639
     21 C15        -4.6227   -1.7665   -1.4550 C.ar      1 <0>        -0.0315
     22 C16        -4.6232   -2.9990   -2.1117 C.ar      1 <0>        -0.0820
     23 C17        -5.7260   -3.3871   -2.8431 C.ar      1 <0>        -0.1509
     24 C18        -6.8324   -2.5566   -2.9272 C.ar      1 <0>         0.1073
     25 C19        -6.8375   -1.3324   -2.2776 C.ar      1 <0>        -0.1486
     26 C20        -5.7424   -0.9361   -1.5389 C.ar      1 <0>        -0.0577
     27 F1         -7.9098   -2.9417   -3.6455 F         1 <0>        -0.1365
     28 C21        -4.6193   -0.8973    1.5634 C.ar      1 <0>        -0.0154
     29 C22        -5.3040   -2.0623    1.9105 C.ar      1 <0>        -0.1009
     30 C23        -6.3928   -1.9933    2.7552 C.ar      1 <0>        -0.1201
     31 C24        -6.8062   -0.7722    3.2573 C.ar      1 <0>        -0.1176
     32 C25        -6.1316    0.3867    2.9165 C.ar      1 <0>        -0.1184
     33 C26        -5.0376    0.3302    2.0777 C.ar      1 <0>        -0.1012
     34 C27        -1.5362   -0.1803    2.2862 C.2       1 <0>         0.6065
     35 O4         -1.4873    1.0092    2.5359 O.2       1 <0>        -0.5093
     36 N2         -1.1173   -1.0784    3.1997 N.am      1 <0>        -0.6685
     37 C28        -0.7310   -0.6512    4.4742 C.ar      1 <0>         0.1486
     38 C29         0.2942   -1.3044    5.1461 C.ar      1 <0>        -0.1474
     39 C30         0.6735   -0.8798    6.4044 C.ar      1 <0>        -0.1010
     40 C31         0.0335    0.1941    6.9955 C.ar      1 <0>        -0.1362
     41 C32        -0.9875    0.8466    6.3292 C.ar      1 <0>        -0.1004
     42 C33        -1.3678    0.4306    5.0684 C.ar      1 <0>        -0.1190
     43 H3          1.5764    0.9640   -0.0906 H         1 <0>         0.0630
     44 H4         -0.0237    1.4686   -0.6850 H         1 <0>         0.0579
     45 H5          0.1977    1.0531    1.0316 H         1 <0>         0.0716
     46 H6          0.4599   -0.8802   -1.3158 H         1 <0>         0.0842
     47 H7          0.5895   -1.3217    1.7016 H         1 <0>         0.0627
     48 H8          0.6473   -2.5981    0.4624 H         1 <0>         0.0580
     49 H9          1.9682   -1.4109    0.5794 H         1 <0>         0.0669
     50 H10        -2.5889   -1.4657   -3.1756 H         1 <0>         0.0980
     51 H11        -0.9427   -0.8995   -2.8044 H         1 <0>         0.1039
     52 H12        -0.3378   -3.1144   -1.9403 H         1 <0>         0.0896
     53 H13        -2.0036   -3.6925   -2.1838 H         1 <0>         0.0965
     54 H14         0.3506   -5.0479   -3.4251 H         1 <0>         0.0981
     55 H15        -1.3432   -5.4795   -3.7636 H         1 <0>         0.0998
     56 H16         1.9446   -4.6027   -5.3923 H         1 <0>         0.1197
     57 H17         1.2369   -4.4631   -7.0227 H         1 <0>         0.1097
     58 H18        -1.0730   -5.1867   -7.3104 H         1 <0>         0.3883
     59 H19        -3.7615   -3.6468   -2.0472 H         1 <0>         0.1309
     60 H20        -5.7274   -4.3398   -3.3517 H         1 <0>         0.1391
     61 H21        -7.7024   -0.6893   -2.3465 H         1 <0>         0.1400
     62 H22        -5.7493    0.0161   -1.0295 H         1 <0>         0.1360
     63 H23        -4.9826   -3.0160    1.5186 H         1 <0>         0.1186
     64 H24        -6.9236   -2.8944    3.0246 H         1 <0>         0.1213
     65 H25        -7.6592   -0.7234    3.9178 H         1 <0>         0.1205
     66 H26        -6.4596    1.3370    3.3112 H         1 <0>         0.1223
     67 H27        -4.5090    1.2350    1.8162 H         1 <0>         0.1231
     68 H28        -1.0836   -2.0210    2.9732 H         1 <0>         0.4102
     69 H29         0.7939   -2.1436    4.6853 H         1 <0>         0.1236
     70 H30         1.4706   -1.3872    6.9274 H         1 <0>         0.1251
     71 H31         0.3316    0.5238    7.9798 H         1 <0>         0.1225
     72 H32        -1.4856    1.6848    6.7938 H         1 <0>         0.1247
     73 H33        -2.1624    0.9434    4.5467 H         1 <0>         0.1331
@<TRIPOS>BOND
     1    1    2 1
     2    1   43 1
     3    1   44 1
     4    1   45 1
     5    2    3 1
     6    2    4 1
     7    2   46 1
     8    3   47 1
     9    3   48 1
    10    3   49 1
    11    4    8 1
    12    4    5 2
    13    5    6 1
    14    5   34 1
    15    6    7 2
    16    6   28 1
    17    7    8 1
    18    7   21 1
    19    8    9 1
    20    9   10 1
    21    9   50 1
    22    9   51 1
    23   10   11 1
    24   10   52 1
    25   10   53 1
    26   11   12 1
    27   11   19 1
    28   11   13 1
    29   13   14 1
    30   13   54 1
    31   13   55 1
    32   14   15 1
    33   14   16 1
    34   14   20 1
    35   16   17 1
    36   16   56 1
    37   16   57 1
    38   17   18 2
    39   17   19 1
    40   20   58 1
    41   21   26 ar
    42   21   22 ar
    43   22   23 ar
    44   22   59 1
    45   23   24 ar
    46   23   60 1
    47   24   25 ar
    48   24   27 1
    49   25   26 ar
    50   25   61 1
    51   26   62 1
    52   28   33 ar
    53   28   29 ar
    54   29   30 ar
    55   29   63 1
    56   30   31 ar
    57   30   64 1
    58   31   32 ar
    59   31   65 1
    60   32   33 ar
    61   32   66 1
    62   33   67 1
    63   34   35 2
    64   34   36 am
    65   36   37 1
    66   36   68 1
    67   37   42 ar
    68   37   38 ar
    69   38   39 ar
    70   38   69 1
    71   39   40 ar
    72   39   70 1
    73   40   41 ar
    74   40   71 1
    75   41   42 ar
    76   41   72 1
    77   42   73 1
@<TRIPOS>MOLECULE
CHEMBL330753
   58    61     0     0     0
SMALL
USER_CHARGES

@<TRIPOS>ATOM
      1 C1         -0.0187    1.5258    0.0104 C.3       1 <0>        -0.1416
      2 C2          0.0021   -0.0041    0.0020 C.3       1 <0>        -0.0284
      3 C3          0.7421   -0.5109    1.2415 C.3       1 <0>        -0.1422
      4 C4         -1.4117   -0.5257    0.0127 C.2       1 <0>         0.0375
      5 C5         -2.4509    0.0464    0.6499 C.2       1 <0>        -0.1657
      6 C6         -3.5947   -0.7530    0.4090 C.2       1 <0>        -0.1177
      7 C7         -3.1845   -1.8084   -0.3896 C.2       1 <0>         0.0982
      8 N1         -1.8457   -1.6503   -0.6266 N.pl3     1 <0>        -0.4284
      9 C8         -1.0128   -2.5455   -1.4335 C.3       1 <0>         0.0940
     10 C9         -0.4257   -3.6396   -0.5396 C.3       1 <0>        -0.1311
     11 C10         0.4442   -4.5745   -1.3823 C.3       1 <0>         0.1136
     12 H1         -0.1406   -4.9624   -2.2164 H         1 <0>         0.0898
     13 C11         0.9324   -5.7382   -0.5154 C.3       1 <0>        -0.1519
     14 C12         1.8366   -6.6497   -1.3514 C.3       1 <0>         0.1046
     15 H2          2.1965   -7.4726   -0.7339 H         1 <0>         0.0817
     16 C13         3.0289   -5.8313   -1.8630 C.3       1 <0>        -0.2045
     17 C14         2.4957   -4.5881   -2.5407 C.2       1 <0>         0.4971
     18 O1          2.8839   -4.2631   -3.6377 O.2       1 <0>        -0.4499
     19 O2          1.5738   -3.8524   -1.8854 O.3       1 <0>        -0.3704
     20 O3          1.0990   -7.1697   -2.4594 O.3       1 <0>        -0.5634
     21 C15        -4.0373   -2.9019   -0.8965 C.ar      1 <0>        -0.0318
     22 C16        -3.9378   -3.3083   -2.2290 C.ar      1 <0>        -0.0859
     23 C17        -4.7365   -4.3305   -2.6967 C.ar      1 <0>        -0.1614
     24 C18        -5.6369   -4.9540   -1.8474 C.ar      1 <0>         0.1059
     25 C19        -5.7400   -4.5550   -0.5241 C.ar      1 <0>        -0.1625
     26 C20        -4.9424   -3.5379   -0.0438 C.ar      1 <0>        -0.0056
     27 F1         -6.4175   -5.9544   -2.3113 F         1 <0>        -0.1409
     28 C21        -4.9645   -0.5086    0.9137 C.ar      1 <0>         0.2106
     29 C22        -5.2204    0.6095    1.7082 C.ar      1 <0>        -0.1651
     30 C23        -6.5055    0.8243    2.1717 C.ar      1 <0>        -0.0702
     31 C24        -7.4959   -0.0858    1.8265 C.ar      1 <0>        -0.1865
     32 C25        -7.1733   -1.1722    1.0359 C.ar      1 <0>         0.1040
     33 N2         -5.9416   -1.3521    0.6024 N.ar      1 <0>        -0.4824
     34 H3          1.0039    1.9031    0.0027 H         1 <0>         0.0614
     35 H4         -0.5459    1.8868   -0.8726 H         1 <0>         0.0585
     36 H5         -0.5289    1.8773    0.9072 H         1 <0>         0.0613
     37 H6          0.5123   -0.3556   -0.8948 H         1 <0>         0.0768
     38 H7          1.7647   -0.1336    1.2338 H         1 <0>         0.0610
     39 H8          0.2319   -0.1594    2.1383 H         1 <0>         0.0607
     40 H9          0.7568   -1.6008    1.2356 H         1 <0>         0.0529
     41 H10        -2.4180    0.9512    1.2387 H         1 <0>         0.1410
     42 H11        -1.6209   -3.0019   -2.2146 H         1 <0>         0.0962
     43 H12        -0.2032   -1.9757   -1.8897 H         1 <0>         0.1021
     44 H13         0.1824   -3.1833    0.2415 H         1 <0>         0.0880
     45 H14        -1.2352   -4.2094   -0.0834 H         1 <0>         0.0959
     46 H15         1.4940   -5.3486    0.3336 H         1 <0>         0.0974
     47 H16         0.0757   -6.3075   -0.1548 H         1 <0>         0.1000
     48 H17         3.6668   -5.5485   -1.0257 H         1 <0>         0.1193
     49 H18         3.6009   -6.4229   -2.5779 H         1 <0>         0.1092
     50 H19         1.6114   -7.7563   -3.0325 H         1 <0>         0.3876
     51 H20        -3.2370   -2.8227   -2.8919 H         1 <0>         0.1262
     52 H21        -4.6605   -4.6456   -3.7269 H         1 <0>         0.1341
     53 H22        -6.4436   -5.0443    0.1330 H         1 <0>         0.1343
     54 H23        -5.0206   -3.2305    0.9886 H         1 <0>         0.1359
     55 H24        -4.4260    1.2972    1.9579 H         1 <0>         0.1331
     56 H25        -6.7337    1.6808    2.7888 H         1 <0>         0.1328
     57 H26        -8.5092    0.0541    2.1731 H         1 <0>         0.1317
     58 H27        -7.9417   -1.8815    0.7660 H         1 <0>         0.1534
@<TRIPOS>BOND
     1    1    2 1
     2    1   34 1
     3    1   35 1
     4    1   36 1
     5    2    3 1
     6    2    4 1
     7    2   37 1
     8    3   38 1
     9    3   39 1
    10    3   40 1
    11    4    8 1
    12    4    5 2
    13    5    6 1
    14    5   41 1
    15    6    7 2
    16    6   28 1
    17    7    8 1
    18    7   21 1
    19    8    9 1
    20    9   10 1
    21    9   42 1
    22    9   43 1
    23   10   11 1
    24   10   44 1
    25   10   45 1
    26   11   12 1
    27   11   19 1
    28   11   13 1
    29   13   14 1
    30   13   46 1
    31   13   47 1
    32   14   15 1
    33   14   16 1
    34   14   20 1
    35   16   17 1
    36   16   48 1
    37   16   49 1
    38   17   18 2
    39   17   19 1
    40   20   50 1
    41   21   26 ar
    42   21   22 ar
    43   22   23 ar
    44   22   51 1
    45   23   24 ar
    46   23   52 1
    47   24   25 ar
    48   24   27 1
    49   25   26 ar
    50   25   53 1
    51   26   54 1
    52   28   33 ar
    53   28   29 ar
    54   29   30 ar
    55   29   55 1
    56   30   31 ar
    57   30   56 1
    58   31   32 ar
    59   31   57 1
    60   32   33 ar
    61   32   58 1
@<TRIPOS>MOLECULE
CHEMBL330995
   51    53     0     0     0
SMALL
USER_CHARGES

@<TRIPOS>ATOM
      1 C1          0.1352    0.7350    0.0247 C.2       1 <0>        -0.1545
      2 C2          1.2332    1.5673   -0.0080 C.2       1 <0>        -0.1309
      3 C3          2.4839    1.0073    0.0082 C.2       1 <0>        -0.0724
      4 S1          2.1050   -0.7363    0.0712 S.3       1 <0>         0.0739
      5 C4          0.3244   -0.6082    0.0718 C.2       1 <0>        -0.1781
      6 C5          3.8013    1.6725   -0.0192 C.2       1 <0>         0.0993
      7 C6          4.9486    1.2457    0.6288 C.2       1 <0>         0.0815
      8 N1          5.9264    2.1662    0.3235 N.pl3     1 <0>        -0.4123
      9 C7          5.3623    3.1022   -0.4802 C.2       1 <0>         0.1176
     10 N2          4.1100    2.8031   -0.6840 N.2       1 <0>        -0.4100
     11 C8          6.0750    4.2998   -1.0537 C.3       1 <0>         0.5655
     12 F1          5.1339    5.2146   -1.5383 F         1 <0>        -0.1492
     13 F2          6.8443    4.9069   -0.0554 F         1 <0>        -0.1636
     14 F3          6.9083    3.8897   -2.1000 F         1 <0>        -0.1633
     15 C9          7.3176    2.1397    0.7819 C.3       1 <0>         0.0916
     16 C10         7.4115    2.7887    2.1642 C.3       1 <0>        -0.1684
     17 C11         8.8784    2.8690    2.5914 C.3       1 <0>         0.1190
     18 H1          9.3248    1.8756    2.5464 H         1 <0>         0.1017
     19 C12         8.9644    3.4024    4.0228 C.3       1 <0>        -0.1857
     20 C13        10.4194    3.3656    4.4943 C.3       1 <0>         0.1383
     21 H2         10.8120    2.3548    4.3829 H         1 <0>         0.0933
     22 C14        10.4895    3.7806    5.9653 C.3       1 <0>        -0.2195
     23 C15        11.9033    3.6267    6.4638 C.2       1 <0>         0.4906
     24 O1         12.7741    3.2225    5.7122 O.co2     1 <0>        -0.6810
     25 O2         12.1763    3.9063    7.6187 O.co2     1 <0>        -0.7122
     26 O3         11.1983    4.2686    3.7070 O.3       1 <0>        -0.5277
     27 O4          9.5831    3.7481    1.7123 O.3       1 <0>        -0.5398
     28 C16         5.0938    0.0463    1.4765 C.ar      1 <0>        -0.0472
     29 C17         6.0913   -0.8917    1.1993 C.ar      1 <0>        -0.0690
     30 C18         6.2221   -2.0104    1.9948 C.ar      1 <0>        -0.1483
     31 C19         5.3662   -2.2055    3.0673 C.ar      1 <0>         0.1182
     32 C20         4.3744   -1.2787    3.3470 C.ar      1 <0>        -0.1470
     33 C21         4.2381   -0.1527    2.5626 C.ar      1 <0>        -0.0496
     34 F4          5.4988   -3.3037    3.8429 F         1 <0>        -0.1335
     35 H3         -0.8632    1.1466    0.0174 H         1 <0>         0.1360
     36 H4          1.1105    2.6396   -0.0461 H         1 <0>         0.1377
     37 H5         -0.4128   -1.3968    0.1022 H         1 <0>         0.1869
     38 H6          7.6609    1.1069    0.8414 H         1 <0>         0.1050
     39 H7          7.9424    2.6904    0.0788 H         1 <0>         0.1114
     40 H8          6.9894    3.7929    2.1236 H         1 <0>         0.0786
     41 H9          6.8553    2.1898    2.8854 H         1 <0>         0.0820
     42 H10         8.5994    4.4291    4.0504 H         1 <0>         0.0649
     43 H11         8.3539    2.7820    4.6790 H         1 <0>         0.0749
     44 H12        10.1806    4.8212    6.0643 H         1 <0>         0.0567
     45 H13         9.8258    3.1470    6.5536 H         1 <0>         0.0609
     46 H14        10.9050    5.1886    3.7581 H         1 <0>         0.3509
     47 H15         9.2393    4.6518    1.7012 H         1 <0>         0.3688
     48 H16         6.7584   -0.7412    0.3634 H         1 <0>         0.1341
     49 H17         6.9928   -2.7363    1.7815 H         1 <0>         0.1436
     50 H18         3.7099   -1.4363    4.1836 H         1 <0>         0.1436
     51 H19         3.4682    0.5715    2.7847 H         1 <0>         0.1369
@<TRIPOS>BOND
     1    1    5 2
     2    1    2 1
     3    1   35 1
     4    2    3 2
     5    2   36 1
     6    3    4 1
     7    3    6 1
     8    4    5 1
     9    5   37 1
    10    6   10 1
    11    6    7 2
    12    7    8 1
    13    7   28 1
    14    8    9 1
    15    8   15 1
    16    9   10 2
    17    9   11 1
    18   11   12 1
    19   11   13 1
    20   11   14 1
    21   15   16 1
    22   15   38 1
    23   15   39 1
    24   16   17 1
    25   16   40 1
    26   16   41 1
    27   17   18 1
    28   17   19 1
    29   17   27 1
    30   19   20 1
    31   19   42 1
    32   19   43 1
    33   20   21 1
    34   20   22 1
    35   20   26 1
    36   22   23 1
    37   22   44 1
    38   22   45 1
    39   23   24 2
    40   23   25 1
    41   26   46 1
    42   27   47 1
    43   28   33 ar
    44   28   29 ar
    45   29   30 ar
    46   29   48 1
    47   30   31 ar
    48   30   49 1
    49   31   32 ar
    50   31   34 1
    51   32   33 ar
    52   32   50 1
    53   33   51 1
@<TRIPOS>MOLECULE
CHEMBL66368
   60    63     0     0     0
SMALL
USER_CHARGES

@<TRIPOS>ATOM
      1 C1         -0.0187    1.5258    0.0104 C.3       1 <0>        -0.1450
      2 C2          0.0021   -0.0041    0.0020 C.3       1 <0>        -0.0158
      3 C3          0.7421   -0.5109    1.2415 C.3       1 <0>        -0.1452
      4 C4         -1.4117   -0.5257    0.0127 C.2       1 <0>         0.1311
      5 C5         -1.9929   -1.3465   -0.9745 C.2       1 <0>        -0.1545
      6 C6         -3.3031   -1.5970   -0.5827 C.2       1 <0>         0.1542
      7 N1         -3.4953   -0.9441    0.6030 N.pl3     1 <0>        -0.2943
      8 N2         -2.3011   -0.2973    0.9410 N.2       1 <0>        -0.2675
      9 C7         -4.6696   -0.9289    1.3449 C.2       1 <0>         0.3903
     10 N3         -5.8128   -1.5194    1.0884 N.2       1 <0>        -0.5218
     11 C8         -6.8821   -1.4179    1.9057 C.ar      1 <0>         0.1004
     12 C9         -8.1619   -1.9993    1.7465 C.ar      1 <0>        -0.0612
     13 C10        -9.1448   -1.7938    2.6784 C.ar      1 <0>        -0.1064
     14 C11        -8.9249   -1.0135    3.8048 C.ar      1 <0>        -0.0965
     15 C12        -7.6860   -0.4297    3.9929 C.ar      1 <0>        -0.0615
     16 C13        -6.6944   -0.6302    3.0648 C.ar      1 <0>        -0.1571
     17 S1         -5.0052   -0.1063    2.8958 S.3       1 <0>         0.0688
     18 C14        -4.2971   -2.4123   -1.3085 C.ar      1 <0>        -0.0611
     19 C15        -4.4490   -2.2673   -2.6894 C.ar      1 <0>        -0.0435
     20 C16        -5.3790   -3.0315   -3.3619 C.ar      1 <0>        -0.1600
     21 C17        -6.1623   -3.9422   -2.6704 C.ar      1 <0>         0.1200
     22 C18        -6.0159   -4.0904   -1.3001 C.ar      1 <0>        -0.1617
     23 C19        -5.0851   -3.3358   -0.6178 C.ar      1 <0>        -0.0191
     24 F1         -7.0722   -4.6880   -3.3345 F         1 <0>        -0.1367
     25 C20        -1.3336   -1.8466   -2.1969 C.2       1 <0>        -0.0965
     26 C21        -1.3908   -3.1370   -2.5012 C.2       1 <0>        -0.1568
     27 C22        -0.7177   -3.6475   -3.7491 C.3       1 <0>         0.1424
     28 C23         0.2482   -4.7760   -3.3824 C.3       1 <0>        -0.1808
     29 C24         0.8379   -5.3778   -4.6595 C.3       1 <0>         0.1375
     30 H1          0.0297   -5.6945   -5.3187 H         1 <0>         0.0933
     31 C25         1.7062   -6.5853   -4.3006 C.3       1 <0>        -0.2192
     32 C26         2.1873   -7.2513   -5.5639 C.2       1 <0>         0.4904
     33 O1          1.8655   -6.8019   -6.6506 O.co2     1 <0>        -0.6809
     34 O2          2.8983   -8.2397   -5.4992 O.co2     1 <0>        -0.7134
     35 O3          1.6372   -4.3967   -5.3233 O.3       1 <0>        -0.5278
     36 O4          0.0067   -2.5831   -4.3691 O.3       1 <0>        -0.5378
     37 H2          1.0039    1.9031    0.0027 H         1 <0>         0.0672
     38 H3         -0.5459    1.8868   -0.8726 H         1 <0>         0.0583
     39 H4         -0.5289    1.8773    0.9072 H         1 <0>         0.0610
     40 H5          0.5123   -0.3556   -0.8948 H         1 <0>         0.0996
     41 H6          0.2319   -0.1594    2.1383 H         1 <0>         0.0610
     42 H7          0.7568   -1.6008    1.2356 H         1 <0>         0.0584
     43 H8          1.7647   -0.1336    1.2338 H         1 <0>         0.0674
     44 H9         -8.3664   -2.6115    0.8806 H         1 <0>         0.1347
     45 H10       -10.1132   -2.2491    2.5329 H         1 <0>         0.1362
     46 H11        -9.7138   -0.8636    4.5270 H         1 <0>         0.1401
     47 H12        -7.4994    0.1805    4.8643 H         1 <0>         0.1352
     48 H13        -3.8395   -1.5578   -3.2292 H         1 <0>         0.1387
     49 H14        -5.4976   -2.9200   -4.4296 H         1 <0>         0.1420
     50 H15        -6.6290   -4.8016   -0.7664 H         1 <0>         0.1363
     51 H16        -4.9688   -3.4553    0.4493 H         1 <0>         0.1286
     52 H17        -0.8046   -1.1622   -2.8437 H         1 <0>         0.1351
     53 H18        -1.9198   -3.8213   -1.8545 H         1 <0>         0.1123
     54 H19        -1.4716   -4.0248   -4.4402 H         1 <0>         0.1091
     55 H20         1.0523   -4.3789   -2.7629 H         1 <0>         0.0647
     56 H21        -0.2880   -5.5483   -2.8308 H         1 <0>         0.0746
     57 H22         2.5639   -6.2547   -3.7148 H         1 <0>         0.0564
     58 H23         1.1191   -7.2943   -3.7169 H         1 <0>         0.0608
     59 H24         2.3773   -4.0688   -4.7943 H         1 <0>         0.3501
     60 H25         0.6957   -2.1985   -3.8102 H         1 <0>         0.3661
@<TRIPOS>BOND
     1    1    2 1
     2    1   37 1
     3    1   38 1
     4    1   39 1
     5    2    3 1
     6    2    4 1
     7    2   40 1
     8    3   41 1
     9    3   42 1
    10    3   43 1
    11    4    8 2
    12    4    5 1
    13    5    6 2
    14    5   25 1
    15    6    7 1
    16    6   18 1
    17    7    8 1
    18    7    9 1
    19    9   17 1
    20    9   10 2
    21   10   11 1
    22   11   16 ar
    23   11   12 ar
    24   12   13 ar
    25   12   44 1
    26   13   14 ar
    27   13   45 1
    28   14   15 ar
    29   14   46 1
    30   15   16 ar
    31   15   47 1
    32   16   17 1
    33   18   23 ar
    34   18   19 ar
    35   19   20 ar
    36   19   48 1
    37   20   21 ar
    38   20   49 1
    39   21   22 ar
    40   21   24 1
    41   22   23 ar
    42   22   50 1
    43   23   51 1
    44   25   26 2
    45   25   52 1
    46   26   27 1
    47   26   53 1
    48   27   28 1
    49   27   36 1
    50   27   54 1
    51   28   29 1
    52   28   55 1
    53   28   56 1
    54   29   30 1
    55   29   31 1
    56   29   35 1
    57   31   32 1
    58   31   57 1
    59   31   58 1
    60   32   33 2
    61   32   34 1
    62   35   59 1
    63   36   60 1
@<TRIPOS>MOLECULE
CHEMBL66368__1
   60    63     0     0     0
SMALL
USER_CHARGES

@<TRIPOS>ATOM
      1 C1         -0.0187    1.5258    0.0104 C.3       1 <0>        -0.1448
      2 C2          0.0021   -0.0041    0.0020 C.3       1 <0>        -0.0171
      3 C3          0.7421   -0.5109    1.2415 C.3       1 <0>        -0.1450
      4 C4         -1.4117   -0.5257    0.0127 C.2       1 <0>         0.1325
      5 C5         -1.9929   -1.3465   -0.9745 C.2       1 <0>        -0.1588
      6 C6         -3.3031   -1.5970   -0.5827 C.2       1 <0>         0.1573
      7 N1         -3.4953   -0.9441    0.6030 N.pl3     1 <0>        -0.2943
      8 N2         -2.3011   -0.2973    0.9410 N.2       1 <0>        -0.2674
      9 C7         -4.6696   -0.9289    1.3449 C.2       1 <0>         0.3899
     10 N3         -5.8128   -1.5194    1.0884 N.2       1 <0>        -0.5214
     11 C8         -6.8821   -1.4179    1.9057 C.ar      1 <0>         0.1002
     12 C9         -8.1619   -1.9993    1.7465 C.ar      1 <0>        -0.0611
     13 C10        -9.1448   -1.7938    2.6784 C.ar      1 <0>        -0.1064
     14 C11        -8.9249   -1.0135    3.8048 C.ar      1 <0>        -0.0964
     15 C12        -7.6860   -0.4297    3.9929 C.ar      1 <0>        -0.0615
     16 C13        -6.6944   -0.6302    3.0648 C.ar      1 <0>        -0.1571
     17 S1         -5.0052   -0.1063    2.8958 S.3       1 <0>         0.0694
     18 C14        -4.2971   -2.4123   -1.3085 C.ar      1 <0>        -0.0628
     19 C15        -4.4490   -2.2673   -2.6894 C.ar      1 <0>        -0.0398
     20 C16        -5.3790   -3.0315   -3.3619 C.ar      1 <0>        -0.1564
     21 C17        -6.1623   -3.9422   -2.6704 C.ar      1 <0>         0.1196
     22 C18        -6.0159   -4.0904   -1.3001 C.ar      1 <0>        -0.1628
     23 C19        -5.0851   -3.3358   -0.6178 C.ar      1 <0>        -0.0195
     24 F1         -7.0722   -4.6880   -3.3345 F         1 <0>        -0.1371
     25 C20        -1.3336   -1.8466   -2.1969 C.2       1 <0>        -0.0844
     26 C21        -1.3908   -3.1370   -2.5012 C.2       1 <0>        -0.1548
     27 C22        -0.7177   -3.6475   -3.7491 C.3       1 <0>         0.1412
     28 C23         0.3376   -4.6884   -3.3700 C.3       1 <0>        -0.1821
     29 C24         1.1061   -5.1151   -4.6223 C.3       1 <0>         0.1356
     30 H1          0.4031   -5.4645   -5.3785 H         1 <0>         0.1025
     31 C25         2.0749   -6.2444   -4.2661 C.3       1 <0>        -0.2184
     32 C26         2.7422   -6.7480   -5.5199 C.2       1 <0>         0.4903
     33 O1          2.4683   -6.2498   -6.5985 O.co2     1 <0>        -0.6807
     34 O2          3.5561   -7.6535   -5.4558 O.co2     1 <0>        -0.7132
     35 O3          1.8405   -4.0009   -5.1333 O.3       1 <0>        -0.5413
     36 O4         -1.6925   -4.2474   -4.6047 O.3       1 <0>        -0.5472
     37 H2          1.0039    1.9031    0.0027 H         1 <0>         0.0675
     38 H3         -0.5459    1.8868   -0.8726 H         1 <0>         0.0581
     39 H4         -0.5289    1.8773    0.9072 H         1 <0>         0.0612
     40 H5          0.5123   -0.3556   -0.8948 H         1 <0>         0.1003
     41 H6          0.2319   -0.1594    2.1383 H         1 <0>         0.0610
     42 H7          0.7568   -1.6008    1.2356 H         1 <0>         0.0586
     43 H8          1.7647   -0.1336    1.2338 H         1 <0>         0.0677
     44 H9         -8.3664   -2.6115    0.8806 H         1 <0>         0.1347
     45 H10       -10.1132   -2.2491    2.5329 H         1 <0>         0.1362
     46 H11        -9.7138   -0.8636    4.5270 H         1 <0>         0.1402
     47 H12        -7.4994    0.1805    4.8643 H         1 <0>         0.1352
     48 H13        -3.8395   -1.5578   -3.2292 H         1 <0>         0.1378
     49 H14        -5.4976   -2.9200   -4.4296 H         1 <0>         0.1423
     50 H15        -6.6290   -4.8016   -0.7664 H         1 <0>         0.1356
     51 H16        -4.9688   -3.4553    0.4493 H         1 <0>         0.1280
     52 H17        -0.8046   -1.1622   -2.8437 H         1 <0>         0.1294
     53 H18        -1.9198   -3.8213   -1.8545 H         1 <0>         0.1087
     54 H19        -0.2392   -2.8177   -4.2693 H         1 <0>         0.1102
     55 H20         1.0307   -4.2567   -2.6479 H         1 <0>         0.0700
     56 H21        -0.1510   -5.5576   -2.9297 H         1 <0>         0.0694
     57 H22         2.8319   -5.8699   -3.5770 H         1 <0>         0.0565
     58 H23         1.5256   -7.0592   -3.7945 H         1 <0>         0.0614
     59 H24         2.4864   -3.6374   -4.5123 H         1 <0>         0.3537
     60 H25        -2.1591   -4.9947   -4.2061 H         1 <0>         0.3694
@<TRIPOS>BOND
     1    1    2 1
     2    1   37 1
     3    1   38 1
     4    1   39 1
     5    2    3 1
     6    2    4 1
     7    2   40 1
     8    3   41 1
     9    3   42 1
    10    3   43 1
    11    4    8 2
    12    4    5 1
    13    5    6 2
    14    5   25 1
    15    6    7 1
    16    6   18 1
    17    7    8 1
    18    7    9 1
    19    9   17 1
    20    9   10 2
    21   10   11 1
    22   11   16 ar
    23   11   12 ar
    24   12   13 ar
    25   12   44 1
    26   13   14 ar
    27   13   45 1
    28   14   15 ar
    29   14   46 1
    30   15   16 ar
    31   15   47 1
    32   16   17 1
    33   18   23 ar
    34   18   19 ar
    35   19   20 ar
    36   19   48 1
    37   20   21 ar
    38   20   49 1
    39   21   22 ar
    40   21   24 1
    41   22   23 ar
    42   22   50 1
    43   23   51 1
    44   25   26 2
    45   25   52 1
    46   26   27 1
    47   26   53 1
    48   27   28 1
    49   27   36 1
    50   27   54 1
    51   28   29 1
    52   28   55 1
    53   28   56 1
    54   29   30 1
    55   29   31 1
    56   29   35 1
    57   31   32 1
    58   31   57 1
    59   31   58 1
    60   32   33 2
    61   32   34 1
    62   35   59 1
    63   36   60 1
@<TRIPOS>MOLECULE
CHEMBL63265
   58    60     0     0     0
SMALL
USER_CHARGES

@<TRIPOS>ATOM
      1 C1         -0.0187    1.5258    0.0104 C.3       1 <0>        -0.1429
      2 C2          0.0021   -0.0041    0.0020 C.3       1 <0>        -0.0143
      3 C3          0.7421   -0.5109    1.2415 C.3       1 <0>        -0.1429
      4 C4         -1.4117   -0.5257    0.0127 C.2       1 <0>         0.1050
      5 C5         -1.9929   -1.3459   -0.9737 C.2       1 <0>        -0.1653
      6 C6         -3.3038   -1.5959   -0.5816 C.2       1 <0>         0.1262
      7 N1         -3.4958   -0.9437    0.6023 N.pl3     1 <0>        -0.3193
      8 N2         -2.3017   -0.2974    0.9412 N.2       1 <0>        -0.2763
      9 C7         -4.6799   -0.9285    1.3499 C.ar      1 <0>         0.1552
     10 C8         -5.9100   -0.9393    0.7054 C.ar      1 <0>        -0.1253
     11 C9         -7.0759   -0.9242    1.4455 C.ar      1 <0>        -0.0982
     12 C10        -7.0194   -0.8977    2.8270 C.ar      1 <0>        -0.1219
     13 C11        -5.7961   -0.8868    3.4718 C.ar      1 <0>        -0.1019
     14 C12        -4.6265   -0.9081    2.7375 C.ar      1 <0>        -0.1118
     15 C13        -4.2983   -2.4108   -1.3077 C.ar      1 <0>        -0.0490
     16 C14        -4.4500   -2.2655   -2.6884 C.ar      1 <0>        -0.0509
     17 C15        -5.3804   -3.0292   -3.3612 C.ar      1 <0>        -0.1500
     18 C16        -6.1644   -3.9393   -2.6698 C.ar      1 <0>         0.1133
     19 C17        -6.0182   -4.0878   -1.2996 C.ar      1 <0>        -0.1526
     20 C18        -5.0867   -3.3339   -0.6172 C.ar      1 <0>        -0.0678
     21 F1         -7.0750   -4.6842   -3.3340 F         1 <0>        -0.1353
     22 C19        -1.3336   -1.8470   -2.1959 C.2       1 <0>        -0.0899
     23 C20        -1.3917   -3.1375   -2.4997 C.2       1 <0>        -0.1665
     24 C21        -0.7188   -3.6489   -3.7473 C.3       1 <0>         0.1433
     25 C22         0.2463   -4.7779   -3.3800 C.3       1 <0>        -0.1804
     26 C23         0.8358   -5.3805   -4.6567 C.3       1 <0>         0.1375
     27 H1          0.0275   -5.6970   -5.3160 H         1 <0>         0.0929
     28 C24         1.7033   -6.5885   -4.2972 C.3       1 <0>        -0.2192
     29 C25         2.1841   -7.2554   -5.5602 C.2       1 <0>         0.4906
     30 O1          1.8628   -6.8062   -6.6471 O.co2     1 <0>        -0.6810
     31 O2          2.8944   -8.2442   -5.4950 O.co2     1 <0>        -0.7135
     32 O3          1.6360   -4.4003   -5.3208 O.3       1 <0>        -0.5280
     33 O4          0.0065   -2.5852   -4.3675 O.3       1 <0>        -0.5387
     34 H2          1.0039    1.9031    0.0027 H         1 <0>         0.0633
     35 H3         -0.5459    1.8868   -0.8726 H         1 <0>         0.0561
     36 H4         -0.5289    1.8773    0.9072 H         1 <0>         0.0593
     37 H5          0.5123   -0.3556   -0.8948 H         1 <0>         0.0934
     38 H6          0.2319   -0.1594    2.1383 H         1 <0>         0.0591
     39 H7          0.7568   -1.6008    1.2356 H         1 <0>         0.0562
     40 H8          1.7647   -0.1336    1.2338 H         1 <0>         0.0635
     41 H9         -5.9548   -0.9593   -0.3735 H         1 <0>         0.1306
     42 H10        -8.0328   -0.9326    0.9449 H         1 <0>         0.1319
     43 H11        -7.9325   -0.8852    3.4035 H         1 <0>         0.1286
     44 H12        -5.7552   -0.8658    4.5508 H         1 <0>         0.1315
     45 H13        -3.6715   -0.9041    3.2417 H         1 <0>         0.1329
     46 H14        -3.8402   -1.5561   -3.2281 H         1 <0>         0.1413
     47 H15        -5.4987   -2.9177   -4.4289 H         1 <0>         0.1438
     48 H16        -6.6318   -4.7985   -0.7659 H         1 <0>         0.1397
     49 H17        -4.9702   -3.4539    0.4498 H         1 <0>         0.1295
     50 H18        -0.8040   -1.1633   -2.8428 H         1 <0>         0.1301
     51 H19        -1.9213   -3.8212   -1.8528 H         1 <0>         0.1101
     52 H20        -1.4727   -4.0259   -4.4383 H         1 <0>         0.1067
     53 H21         1.0506   -4.3812   -2.7605 H         1 <0>         0.0642
     54 H22        -0.2905   -5.5496   -2.8282 H         1 <0>         0.0738
     55 H23         2.5611   -6.2583   -3.7114 H         1 <0>         0.0564
     56 H24         1.1156   -7.2969   -3.7133 H         1 <0>         0.0606
     57 H25         2.3762   -4.0727   -4.7917 H         1 <0>         0.3501
     58 H26         0.6957   -2.2009   -3.8087 H         1 <0>         0.3660
@<TRIPOS>BOND
     1    1    2 1
     2    1   34 1
     3    1   35 1
     4    1   36 1
     5    2    3 1
     6    2    4 1
     7    2   37 1
     8    3   38 1
     9    3   39 1
    10    3   40 1
    11    4    8 2
    12    4    5 1
    13    5    6 2
    14    5   22 1
    15    6    7 1
    16    6   15 1
    17    7    8 1
    18    7    9 1
    19    9   14 ar
    20    9   10 ar
    21   10   11 ar
    22   10   41 1
    23   11   12 ar
    24   11   42 1
    25   12   13 ar
    26   12   43 1
    27   13   14 ar
    28   13   44 1
    29   14   45 1
    30   15   20 ar
    31   15   16 ar
    32   16   17 ar
    33   16   46 1
    34   17   18 ar
    35   17   47 1
    36   18   19 ar
    37   18   21 1
    38   19   20 ar
    39   19   48 1
    40   20   49 1
    41   22   23 2
    42   22   50 1
    43   23   24 1
    44   23   51 1
    45   24   25 1
    46   24   33 1
    47   24   52 1
    48   25   26 1
    49   25   53 1
    50   25   54 1
    51   26   27 1
    52   26   28 1
    53   26   32 1
    54   28   29 1
    55   28   55 1
    56   28   56 1
    57   29   30 2
    58   29   31 1
    59   32   57 1
    60   33   58 1
@<TRIPOS>MOLECULE
CHEMBL63265__1
   58    60     0     0     0
SMALL
USER_CHARGES

@<TRIPOS>ATOM
      1 C1         -0.0187    1.5258    0.0104 C.3       1 <0>        -0.1427
      2 C2          0.0021   -0.0041    0.0020 C.3       1 <0>        -0.0157
      3 C3          0.7421   -0.5109    1.2415 C.3       1 <0>        -0.1427
      4 C4         -1.4117   -0.5257    0.0127 C.2       1 <0>         0.1065
      5 C5         -1.9929   -1.3459   -0.9737 C.2       1 <0>        -0.1695
      6 C6         -3.3038   -1.5959   -0.5816 C.2       1 <0>         0.1291
      7 N1         -3.4958   -0.9437    0.6023 N.pl3     1 <0>        -0.3191
      8 N2         -2.3017   -0.2974    0.9412 N.2       1 <0>        -0.2762
      9 C7         -4.6799   -0.9285    1.3499 C.ar      1 <0>         0.1549
     10 C8         -5.9100   -0.9393    0.7054 C.ar      1 <0>        -0.1251
     11 C9         -7.0759   -0.9242    1.4455 C.ar      1 <0>        -0.0982
     12 C10        -7.0194   -0.8977    2.8270 C.ar      1 <0>        -0.1217
     13 C11        -5.7961   -0.8868    3.4718 C.ar      1 <0>        -0.1019
     14 C12        -4.6265   -0.9081    2.7375 C.ar      1 <0>        -0.1116
     15 C13        -4.2983   -2.4108   -1.3077 C.ar      1 <0>        -0.0507
     16 C14        -4.4500   -2.2655   -2.6884 C.ar      1 <0>        -0.0471
     17 C15        -5.3804   -3.0292   -3.3612 C.ar      1 <0>        -0.1463
     18 C16        -6.1644   -3.9393   -2.6698 C.ar      1 <0>         0.1129
     19 C17        -6.0182   -4.0878   -1.2996 C.ar      1 <0>        -0.1536
     20 C18        -5.0867   -3.3339   -0.6172 C.ar      1 <0>        -0.0682
     21 F1         -7.0750   -4.6842   -3.3340 F         1 <0>        -0.1356
     22 C19        -1.3336   -1.8470   -2.1959 C.2       1 <0>        -0.0782
     23 C20        -1.3917   -3.1375   -2.4997 C.2       1 <0>        -0.1640
     24 C21        -0.7188   -3.6489   -3.7473 C.3       1 <0>         0.1419
     25 C22         0.3358   -4.6903   -3.3676 C.3       1 <0>        -0.1816
     26 C23         1.1042   -5.1181   -4.6196 C.3       1 <0>         0.1356
     27 H1          0.4011   -5.4673   -5.3758 H         1 <0>         0.1021
     28 C24         2.0722   -6.2479   -4.2628 C.3       1 <0>        -0.2184
     29 C25         2.7394   -6.7524   -5.5163 C.2       1 <0>         0.4905
     30 O1          2.4660   -6.2544   -6.5951 O.co2     1 <0>        -0.6807
     31 O2          3.5526   -7.6585   -5.4517 O.co2     1 <0>        -0.7133
     32 O3          1.8394   -4.0045   -5.1309 O.3       1 <0>        -0.5415
     33 O4         -1.6938   -4.2484   -4.6028 O.3       1 <0>        -0.5484
     34 H2          1.0039    1.9031    0.0027 H         1 <0>         0.0636
     35 H3         -0.5459    1.8868   -0.8726 H         1 <0>         0.0559
     36 H4         -0.5289    1.8773    0.9072 H         1 <0>         0.0595
     37 H5          0.5123   -0.3556   -0.8948 H         1 <0>         0.0940
     38 H6          0.2319   -0.1594    2.1383 H         1 <0>         0.0591
     39 H7          0.7568   -1.6008    1.2356 H         1 <0>         0.0564
     40 H8          1.7647   -0.1336    1.2338 H         1 <0>         0.0639
     41 H9         -5.9548   -0.9593   -0.3735 H         1 <0>         0.1307
     42 H10        -8.0328   -0.9326    0.9449 H         1 <0>         0.1320
     43 H11        -7.9325   -0.8852    3.4035 H         1 <0>         0.1286
     44 H12        -5.7552   -0.8658    4.5508 H         1 <0>         0.1316
     45 H13        -3.6715   -0.9041    3.2417 H         1 <0>         0.1330
     46 H14        -3.8402   -1.5561   -3.2281 H         1 <0>         0.1404
     47 H15        -5.4987   -2.9177   -4.4289 H         1 <0>         0.1441
     48 H16        -6.6318   -4.7985   -0.7659 H         1 <0>         0.1391
     49 H17        -4.9702   -3.4539    0.4498 H         1 <0>         0.1289
     50 H18        -0.8040   -1.1633   -2.8428 H         1 <0>         0.1241
     51 H19        -1.9213   -3.8212   -1.8528 H         1 <0>         0.1067
     52 H20        -0.2396   -2.8196   -4.2677 H         1 <0>         0.1088
     53 H21         1.0291   -4.2588   -2.6456 H         1 <0>         0.0695
     54 H22        -0.1535   -5.5590   -2.9271 H         1 <0>         0.0686
     55 H23         2.8293   -5.8736   -3.5737 H         1 <0>         0.0564
     56 H24         1.5222   -7.0621   -3.7910 H         1 <0>         0.0612
     57 H25         2.4855   -3.6412   -4.5099 H         1 <0>         0.3537
     58 H26        -2.1610   -4.9953   -4.2040 H         1 <0>         0.3685
@<TRIPOS>BOND
     1    1    2 1
     2    1   34 1
     3    1   35 1
     4    1   36 1
     5    2    3 1
     6    2    4 1
     7    2   37 1
     8    3   38 1
     9    3   39 1
    10    3   40 1
    11    4    8 2
    12    4    5 1
    13    5    6 2
    14    5   22 1
    15    6    7 1
    16    6   15 1
    17    7    8 1
    18    7    9 1
    19    9   14 ar
    20    9   10 ar
    21   10   11 ar
    22   10   41 1
    23   11   12 ar
    24   11   42 1
    25   12   13 ar
    26   12   43 1
    27   13   14 ar
    28   13   44 1
    29   14   45 1
    30   15   20 ar
    31   15   16 ar
    32   16   17 ar
    33   16   46 1
    34   17   18 ar
    35   17   47 1
    36   18   19 ar
    37   18   21 1
    38   19   20 ar
    39   19   48 1
    40   20   49 1
    41   22   23 2
    42   22   50 1
    43   23   24 1
    44   23   51 1
    45   24   25 1
    46   24   33 1
    47   24   52 1
    48   25   26 1
    49   25   53 1
    50   25   54 1
    51   26   27 1
    52   26   28 1
    53   26   32 1
    54   28   29 1
    55   28   55 1
    56   28   56 1
    57   29   30 2
    58   29   31 1
    59   32   57 1
    60   33   58 1
@<TRIPOS>MOLECULE
CHEMBL398240
   77    80     0     0     0
SMALL
USER_CHARGES

@<TRIPOS>ATOM
      1 C1         -0.2868    1.5169   -0.0934 C.3       1 <0>        -0.1703
      2 C2         -0.0538    0.0067   -0.0168 C.3       1 <0>         0.1194
      3 C3          0.6097   -0.3400    1.3176 C.3       1 <0>        -0.1725
      4 N1         -1.3378   -0.6913   -0.1196 N.pl3     1 <0>        -0.4020
      5 C4         -1.6822   -1.5606   -1.0996 C.2       1 <0>         0.0728
      6 C5         -2.9476   -2.0121   -0.8699 C.2       1 <0>        -0.1222
      7 C6         -3.4130   -1.3892    0.3164 C.2       1 <0>        -0.0578
      8 C7         -2.3835   -0.5724    0.7675 C.2       1 <0>        -0.0302
      9 C8         -2.4079    0.2660    1.9676 C.2       1 <0>         0.6056
     10 O1         -2.7833    1.4218    1.8951 O.2       1 <0>        -0.5189
     11 N2         -2.0149   -0.2418    3.1525 N.am      1 <0>        -0.7132
     12 C9         -2.1324    0.5644    4.3702 C.3       1 <0>         0.1724
     13 C10        -1.6284   -0.2288    5.5483 C.ar      1 <0>         0.1049
     14 C11        -0.3213   -0.0710    5.9692 C.ar      1 <0>        -0.1529
     15 C12         0.1324   -0.8053    7.0539 C.ar      1 <0>        -0.0749
     16 C13        -0.7496   -1.6748    7.6777 C.ar      1 <0>        -0.1646
     17 C14        -2.0422   -1.7797    7.2006 C.ar      1 <0>         0.1009
     18 N3         -2.4410   -1.0612    6.1690 N.ar      1 <0>        -0.4660
     19 C15        -4.7366   -1.5768    0.9529 C.ar      1 <0>        -0.0119
     20 C16        -5.8957   -1.1710    0.2913 C.ar      1 <0>        -0.0958
     21 C17        -7.1262   -1.3484    0.8898 C.ar      1 <0>        -0.1195
     22 C18        -7.2118   -1.9270    2.1436 C.ar      1 <0>        -0.1214
     23 C19        -6.0659   -2.3311    2.8050 C.ar      1 <0>        -0.1172
     24 C20        -4.8300   -2.1652    2.2143 C.ar      1 <0>        -0.1032
     25 C21        -3.7003   -2.9781   -1.7073 C.ar      1 <0>        -0.0080
     26 C22        -4.0550   -2.6433   -3.0128 C.ar      1 <0>        -0.0815
     27 C23        -4.7551   -3.5448   -3.7881 C.ar      1 <0>        -0.1505
     28 C24        -5.1058   -4.7810   -3.2704 C.ar      1 <0>         0.0945
     29 C25        -4.7557   -5.1179   -1.9730 C.ar      1 <0>        -0.1507
     30 C26        -4.0498   -4.2251   -1.1928 C.ar      1 <0>        -0.0731
     31 F1         -5.7917   -5.6605   -4.0329 F         1 <0>        -0.1421
     32 C27        -0.8069   -1.9636   -2.2583 C.3       1 <0>        -0.0534
     33 C28         0.0206   -3.1904   -1.8698 C.3       1 <0>        -0.1432
     34 C29         0.9093   -3.5995   -3.0461 C.3       1 <0>         0.1135
     35 H1          0.2921   -3.7541   -3.9312 H         1 <0>         0.0985
     36 C30         1.6435   -4.8974   -2.7034 C.3       1 <0>        -0.1859
     37 C31         2.4347   -5.3731   -3.9235 C.3       1 <0>         0.1375
     38 H2          1.7643   -5.4657   -4.7779 H         1 <0>         0.0929
     39 C32         3.0677   -6.7331   -3.6222 C.3       1 <0>        -0.2191
     40 C33         3.7437   -7.2583   -4.8624 C.2       1 <0>         0.4903
     41 O2          3.7214   -6.6054   -5.8919 O.co2     1 <0>        -0.6809
     42 O3          4.3131   -8.3362   -4.8364 O.co2     1 <0>        -0.7133
     43 O4          3.4616   -4.4260   -4.2242 O.3       1 <0>        -0.5278
     44 O5          1.8626   -2.5669   -3.3046 O.3       1 <0>        -0.5415
     45 H3          0.6733    2.0304   -0.1456 H         1 <0>         0.0763
     46 H4         -0.8721    1.7496   -0.9829 H         1 <0>         0.0670
     47 H5         -0.8274    1.8466    0.7938 H         1 <0>         0.0729
     48 H6          0.5947   -0.3029   -0.8363 H         1 <0>         0.1099
     49 H7          0.0019    0.0450    2.1364 H         1 <0>         0.0669
     50 H8          0.6985   -1.4225    1.4088 H         1 <0>         0.0666
     51 H9          1.6013    0.1106    1.3581 H         1 <0>         0.0805
     52 H10        -1.6542   -1.1410    3.1992 H         1 <0>         0.4036
     53 H11        -1.5393    1.4726    4.2632 H         1 <0>         0.0866
     54 H12        -3.1773    0.8295    4.5309 H         1 <0>         0.0892
     55 H13         0.3384    0.6154    5.4592 H         1 <0>         0.1371
     56 H14         1.1487   -0.7030    7.4047 H         1 <0>         0.1376
     57 H15        -0.4302   -2.2629    8.5253 H         1 <0>         0.1377
     58 H16        -2.7353   -2.4546    7.6808 H         1 <0>         0.1591
     59 H17        -5.8301   -0.7186   -0.6871 H         1 <0>         0.1201
     60 H18        -8.0243   -1.0347    0.3786 H         1 <0>         0.1204
     61 H19        -8.1772   -2.0635    2.6081 H         1 <0>         0.1185
     62 H20        -6.1391   -2.7815    3.7839 H         1 <0>         0.1202
     63 H21        -3.9365   -2.4854    2.7295 H         1 <0>         0.1160
     64 H22        -3.7826   -1.6795   -3.4170 H         1 <0>         0.1310
     65 H23        -5.0304   -3.2862   -4.7999 H         1 <0>         0.1346
     66 H24        -5.0318   -6.0824   -1.5732 H         1 <0>         0.1332
     67 H25        -3.7728   -4.4906   -0.1832 H         1 <0>         0.1285
     68 H26        -1.4312   -2.2040   -3.1188 H         1 <0>         0.0903
     69 H27        -0.1390   -1.1405   -2.5126 H         1 <0>         0.0802
     70 H28         0.6449   -2.9499   -1.0092 H         1 <0>         0.0603
     71 H29        -0.6472   -4.0135   -1.6155 H         1 <0>         0.0756
     72 H30         2.3274   -4.7196   -1.8735 H         1 <0>         0.0608
     73 H31         0.9189   -5.6608   -2.4200 H         1 <0>         0.0738
     74 H32         3.8040   -6.6228   -2.8261 H         1 <0>         0.0554
     75 H33         2.2934   -7.4324   -3.3067 H         1 <0>         0.0608
     76 H34         4.0962   -4.2927   -3.5068 H         1 <0>         0.3489
     77 H35         2.4472   -2.3755   -2.5585 H         1 <0>         0.3623
@<TRIPOS>BOND
     1    1    2 1
     2    1   45 1
     3    1   46 1
     4    1   47 1
     5    2    3 1
     6    2    4 1
     7    2   48 1
     8    3   49 1
     9    3   50 1
    10    3   51 1
    11    4    8 1
    12    4    5 1
    13    5    6 2
    14    5   32 1
    15    6    7 1
    16    6   25 1
    17    7    8 2
    18    7   19 1
    19    8    9 1
    20    9   10 2
    21    9   11 am
    22   11   12 1
    23   11   52 1
    24   12   13 1
    25   12   53 1
    26   12   54 1
    27   13   18 ar
    28   13   14 ar
    29   14   15 ar
    30   14   55 1
    31   15   16 ar
    32   15   56 1
    33   16   17 ar
    34   16   57 1
    35   17   18 ar
    36   17   58 1
    37   19   24 ar
    38   19   20 ar
    39   20   21 ar
    40   20   59 1
    41   21   22 ar
    42   21   60 1
    43   22   23 ar
    44   22   61 1
    45   23   24 ar
    46   23   62 1
    47   24   63 1
    48   25   30 ar
    49   25   26 ar
    50   26   27 ar
    51   26   64 1
    52   27   28 ar
    53   27   65 1
    54   28   29 ar
    55   28   31 1
    56   29   30 ar
    57   29   66 1
    58   30   67 1
    59   32   33 1
    60   32   68 1
    61   32   69 1
    62   33   34 1
    63   33   70 1
    64   33   71 1
    65   34   35 1
    66   34   36 1
    67   34   44 1
    68   36   37 1
    69   36   72 1
    70   36   73 1
    71   37   38 1
    72   37   39 1
    73   37   43 1
    74   39   40 1
    75   39   74 1
    76   39   75 1
    77   40   41 2
    78   40   42 1
    79   43   76 1
    80   44   77 1
@<TRIPOS>MOLECULE
CHEMBL401949
   77    80     0     0     0
SMALL
USER_CHARGES

@<TRIPOS>ATOM
      1 C1         -0.4913    1.5383   -0.5335 C.3       1 <0>        -0.1518
      2 C2         -0.7836    0.0989   -0.1050 C.3       1 <0>        -0.0433
      3 C3          0.3306   -0.3939    0.8205 C.3       1 <0>        -0.1323
      4 C4         -2.1012    0.0498    0.6248 C.2       1 <0>         0.1737
      5 C5         -2.4104    0.7569    1.7288 C.2       1 <0>        -0.7325
      6 C6         -3.7363    0.4237    2.0950 C.2       1 <0>        -0.0271
      7 C7         -4.1880   -0.5001    1.1678 C.2       1 <0>         0.0634
      8 N1         -3.1748   -0.7135    0.2702 N.pl3     1 <0>        -0.4153
      9 C8         -3.2338   -1.6173   -0.8813 C.3       1 <0>         0.0899
     10 C9         -2.7590   -3.0098   -0.4614 C.3       1 <0>        -0.1684
     11 C10        -2.8206   -3.9537   -1.6640 C.3       1 <0>         0.1185
     12 H1         -3.8276   -3.9453   -2.0813 H         1 <0>         0.1000
     13 C11        -2.4657   -5.3732   -1.2169 C.3       1 <0>        -0.1861
     14 C12        -2.6479   -6.3381   -2.3903 C.3       1 <0>         0.1386
     15 H2         -3.6608   -6.2464   -2.7822 H         1 <0>         0.0929
     16 C13        -2.4140   -7.7725   -1.9121 C.3       1 <0>        -0.2197
     17 C14        -2.7128   -8.7315   -3.0355 C.2       1 <0>         0.4908
     18 O1         -3.0789   -8.3071   -4.1182 O.co2     1 <0>        -0.6811
     19 O2         -2.5884   -9.9319   -2.8616 O.co2     1 <0>        -0.7120
     20 O3         -1.7085   -6.0198   -3.4190 O.3       1 <0>        -0.5278
     21 O4         -1.8896   -3.5205   -2.6577 O.3       1 <0>        -0.5412
     22 C15        -5.5207   -1.1352    1.1467 C.ar      1 <0>        -0.0294
     23 C16        -6.2263   -1.2445   -0.0537 C.ar      1 <0>        -0.0857
     24 C17        -7.4706   -1.8387   -0.0672 C.ar      1 <0>        -0.1470
     25 C18        -8.0215   -2.3264    1.1073 C.ar      1 <0>         0.1060
     26 C19        -7.3261   -2.2207    2.3014 C.ar      1 <0>        -0.1472
     27 C20        -6.0783   -1.6341    2.3261 C.ar      1 <0>        -0.0605
     28 F1         -9.2414   -2.9067    1.0881 F         1 <0>        -0.1366
     29 C21        -4.4953    0.9605    3.2489 C.ar      1 <0>        -0.0424
     30 C22        -4.0486    0.7288    4.5494 C.ar      1 <0>        -0.0831
     31 C23        -4.7593    1.2316    5.6199 C.ar      1 <0>        -0.1204
     32 C24        -5.9132    1.9639    5.4050 C.ar      1 <0>        -0.1135
     33 C25        -6.3616    2.1967    4.1171 C.ar      1 <0>        -0.1262
     34 C26        -5.6560    1.7042    3.0384 C.ar      1 <0>        -0.0995
     35 S1         -1.3542    1.8915    2.5665 S.o2      1 <0>         2.7069
     36 O5         -1.4616    1.5987    3.9529 O.2       1 <0>        -0.9530
     37 O6         -0.1112    1.8734    1.8782 O.2       1 <0>        -0.9480
     38 N2         -1.9922    3.4045    2.3516 N.pl3     1 <0>        -0.9983
     39 C27        -1.4752    4.3033    1.3074 C.3       1 <0>         0.0770
     40 C28        -2.6612    4.8265    0.4892 C.3       1 <0>         0.0474
     41 O7         -3.6376    5.3785    1.3755 O.3       1 <0>        -0.3763
     42 C29        -4.2005    4.4330    2.2883 C.3       1 <0>         0.0484
     43 C30        -3.0971    3.8875    3.1950 C.3       1 <0>         0.0859
     44 H3          0.5668    1.6376   -0.7754 H         1 <0>         0.0739
     45 H4         -1.0892    1.7846   -1.4110 H         1 <0>         0.0460
     46 H5         -0.7434    2.2180    0.2804 H         1 <0>         0.0772
     47 H6         -0.8327   -0.5399   -0.9868 H         1 <0>         0.0865
     48 H7          0.1325   -0.0583    1.8384 H         1 <0>         0.0594
     49 H8          0.3668   -1.4831    0.7976 H         1 <0>         0.0483
     50 H9          1.2864    0.0085    0.4847 H         1 <0>         0.0748
     51 H10        -4.2600   -1.6773   -1.2439 H         1 <0>         0.0999
     52 H11        -2.5898   -1.2376   -1.6745 H         1 <0>         0.1062
     53 H12        -1.7329   -2.9499   -0.0988 H         1 <0>         0.0745
     54 H13        -3.4031   -3.3895    0.3318 H         1 <0>         0.0797
     55 H14        -1.4287   -5.4001   -0.8820 H         1 <0>         0.0644
     56 H15        -3.1200   -5.6703   -0.3973 H         1 <0>         0.0744
     57 H16        -1.3751   -7.8875   -1.6028 H         1 <0>         0.0567
     58 H17        -3.0701   -7.9857   -1.0682 H         1 <0>         0.0609
     59 H18        -0.7845   -6.0806   -3.1404 H         1 <0>         0.3505
     60 H19        -0.9712   -3.5032   -2.3554 H         1 <0>         0.3673
     61 H20        -5.7983   -0.8642   -0.9694 H         1 <0>         0.1318
     62 H21        -8.0171   -1.9238   -0.9949 H         1 <0>         0.1402
     63 H22        -7.7604   -2.6022    3.2136 H         1 <0>         0.1395
     64 H23        -5.5353   -1.5563    3.2565 H         1 <0>         0.1359
     65 H24        -3.1483    0.1567    4.7184 H         1 <0>         0.1349
     66 H25        -4.4144    1.0529    6.6276 H         1 <0>         0.1247
     67 H26        -6.4664    2.3552    6.2460 H         1 <0>         0.1216
     68 H27        -7.2633    2.7687    3.9555 H         1 <0>         0.1229
     69 H28        -6.0045    1.8904    2.0333 H         1 <0>         0.1197
     70 H29        -0.9507    5.1395    1.7697 H         1 <0>         0.0826
     71 H30        -0.7932    3.7560    0.6567 H         1 <0>         0.1080
     72 H31        -2.3165    5.5983   -0.1990 H         1 <0>         0.1059
     73 H32        -3.1043    4.0060   -0.0753 H         1 <0>         0.0560
     74 H33        -4.9632    4.9217    2.8945 H         1 <0>         0.1038
     75 H34        -4.6492    3.6111    1.7304 H         1 <0>         0.0597
     76 H35        -3.4886    3.0650    3.7936 H         1 <0>         0.1004
     77 H36        -2.7387    4.6812    3.8505 H         1 <0>         0.0785
@<TRIPOS>BOND
     1    1    2 1
     2    1   44 1
     3    1   45 1
     4    1   46 1
     5    2    3 1
     6    2    4 1
     7    2   47 1
     8    3   48 1
     9    3   49 1
    10    3   50 1
    11    4    8 1
    12    4    5 2
    13    5    6 1
    14    5   35 1
    15    6    7 2
    16    6   29 1
    17    7    8 1
    18    7   22 1
    19    8    9 1
    20    9   10 1
    21    9   51 1
    22    9   52 1
    23   10   11 1
    24   10   53 1
    25   10   54 1
    26   11   12 1
    27   11   13 1
    28   11   21 1
    29   13   14 1
    30   13   55 1
    31   13   56 1
    32   14   15 1
    33   14   16 1
    34   14   20 1
    35   16   17 1
    36   16   57 1
    37   16   58 1
    38   17   18 2
    39   17   19 1
    40   20   59 1
    41   21   60 1
    42   22   27 ar
    43   22   23 ar
    44   23   24 ar
    45   23   61 1
    46   24   25 ar
    47   24   62 1
    48   25   26 ar
    49   25   28 1
    50   26   27 ar
    51   26   63 1
    52   27   64 1
    53   29   34 ar
    54   29   30 ar
    55   30   31 ar
    56   30   65 1
    57   31   32 ar
    58   31   66 1
    59   32   33 ar
    60   32   67 1
    61   33   34 ar
    62   33   68 1
    63   34   69 1
    64   35   36 2
    65   35   37 2
    66   35   38 1
    67   38   43 1
    68   38   39 1
    69   39   40 1
    70   39   70 1
    71   39   71 1
    72   40   41 1
    73   40   72 1
    74   40   73 1
    75   41   42 1
    76   42   43 1
    77   42   74 1
    78   42   75 1
    79   43   76 1
    80   43   77 1
@<TRIPOS>MOLECULE
CHEMBL437783
   79    82     0     0     0
SMALL
USER_CHARGES

@<TRIPOS>ATOM
      1 C1          0.2451    1.1205    0.1242 C.3       1 <0>        -0.1619
      2 C2          0.0138   -0.3914    0.1655 C.3       1 <0>        -0.0709
      3 C3          0.7148   -0.9812    1.3909 C.3       1 <0>        -0.1563
      4 C4         -1.4646   -0.6713    0.2492 C.2       1 <0>         0.1733
      5 C5         -2.1583   -1.4672   -0.5873 C.2       1 <0>        -0.7326
      6 C6         -3.5091   -1.4606   -0.1650 C.2       1 <0>        -0.0214
      7 C7         -3.5782   -0.6349    0.9443 C.2       1 <0>         0.0594
      8 N1         -2.3146   -0.1641    1.1879 N.pl3     1 <0>        -0.4116
      9 C8         -1.9383    0.7401    2.2775 C.3       1 <0>         0.0840
     10 C9         -2.1869    2.1874    1.8481 C.3       1 <0>        -0.1772
     11 C10        -1.7416    3.1342    2.9645 C.3       1 <0>         0.1184
     12 H1         -2.2449    2.8636    3.8927 H         1 <0>         0.0998
     13 C11        -2.1039    4.5723    2.5883 C.3       1 <0>        -0.1860
     14 C12        -1.7725    5.5038    3.7559 C.3       1 <0>         0.1389
     15 H2         -2.2747    5.1504    4.6565 H         1 <0>         0.0928
     16 C13        -2.2486    6.9206    3.4290 C.3       1 <0>        -0.2197
     17 C14        -2.0339    7.8113    4.6255 C.2       1 <0>         0.4909
     18 O1         -1.5454    7.3551    5.6452 O.co2     1 <0>        -0.6813
     19 O2         -2.3488    8.9880    4.5739 O.co2     1 <0>        -0.7120
     20 O3         -0.3598    5.5138    3.9712 O.3       1 <0>        -0.5277
     21 O4         -0.3274    3.0300    3.1416 O.3       1 <0>        -0.5402
     22 C15        -4.7914   -0.3231    1.7259 C.ar      1 <0>        -0.0266
     23 C16        -4.7492   -0.3388    3.1219 C.ar      1 <0>        -0.0859
     24 C17        -5.8855   -0.0469    3.8466 C.ar      1 <0>        -0.1473
     25 C18        -7.0678    0.2613    3.1924 C.ar      1 <0>         0.1047
     26 C19        -7.1157    0.2784    1.8074 C.ar      1 <0>        -0.1471
     27 C20        -5.9841   -0.0058    1.0722 C.ar      1 <0>        -0.0613
     28 F1         -8.1782    0.5456    3.9076 F         1 <0>        -0.1372
     29 C21        -4.6334   -2.1960   -0.7900 C.ar      1 <0>        -0.0345
     30 C22        -5.0410   -1.8819   -2.0861 C.ar      1 <0>        -0.0608
     31 C23        -6.0883   -2.5706   -2.6630 C.ar      1 <0>        -0.1212
     32 C24        -6.7340   -3.5706   -1.9581 C.ar      1 <0>        -0.1148
     33 C25        -6.3345   -3.8864   -0.6718 C.ar      1 <0>        -0.1283
     34 C26        -5.2845   -3.2089   -0.0866 C.ar      1 <0>        -0.0980
     35 S1         -1.5023   -2.3558   -1.9601 S.o2      1 <0>         2.7101
     36 O5         -2.5848   -2.5815   -2.8526 O.2       1 <0>        -0.9496
     37 O6         -0.3182   -1.6768   -2.3551 O.2       1 <0>        -0.9647
     38 N2         -1.0316   -3.8421   -1.4016 N.pl3     1 <0>        -0.9956
     39 C27         0.3298   -4.0532   -0.8910 C.3       1 <0>         0.1193
     40 C28         0.2413   -4.6584    0.5135 C.3       1 <0>        -0.1369
     41 C29        -0.6155   -5.9255    0.4656 C.3       1 <0>        -0.1159
     42 C30        -2.0302   -5.5695    0.0030 C.3       1 <0>        -0.1342
     43 C31        -1.9694   -4.9731   -1.4016 C.3       1 <0>         0.1240
     44 H3          1.3056    1.3218   -0.0268 H         1 <0>         0.0719
     45 H4         -0.3273    1.5533   -0.6963 H         1 <0>         0.0608
     46 H5         -0.0783    1.5634    1.0662 H         1 <0>         0.0688
     47 H6          0.4190   -0.8457   -0.7387 H         1 <0>         0.1295
     48 H7          0.2352   -0.6111    2.2970 H         1 <0>         0.0591
     49 H8          0.6450   -2.0686    1.3610 H         1 <0>         0.0620
     50 H9          1.7635   -0.6842    1.3876 H         1 <0>         0.0733
     51 H10        -2.5373    0.5148    3.1598 H         1 <0>         0.0960
     52 H11        -0.8821    0.6069    2.5117 H         1 <0>         0.1140
     53 H12        -1.6186    2.4005    0.9427 H         1 <0>         0.0828
     54 H13        -3.2495    2.3309    1.6523 H         1 <0>         0.0794
     55 H14        -1.5325    4.8730    1.7101 H         1 <0>         0.0643
     56 H15        -3.1694    4.6324    2.3666 H         1 <0>         0.0745
     57 H16        -1.6826    7.3077    2.5817 H         1 <0>         0.0566
     58 H17        -3.3091    6.8987    3.1780 H         1 <0>         0.0608
     59 H18         0.1520    5.8181    3.2093 H         1 <0>         0.3504
     60 H19         0.1854    3.2566    2.3537 H         1 <0>         0.3662
     61 H20        -3.8286   -0.5795    3.6327 H         1 <0>         0.1309
     62 H21        -5.8541   -0.0587    4.9261 H         1 <0>         0.1395
     63 H22        -8.0399    0.5189    1.3030 H         1 <0>         0.1391
     64 H23        -6.0215    0.0122   -0.0070 H         1 <0>         0.1358
     65 H24        -4.5381   -1.1010   -2.6371 H         1 <0>         0.1220
     66 H25        -6.4049   -2.3282   -3.6667 H         1 <0>         0.1208
     67 H26        -7.5535   -4.1067   -2.4136 H         1 <0>         0.1179
     68 H27        -6.8426   -4.6678   -0.1262 H         1 <0>         0.1188
     69 H28        -4.9706   -3.4594    0.9160 H         1 <0>         0.1163
     70 H29         0.8654   -4.7363   -1.5502 H         1 <0>         0.0735
     71 H30         0.8550   -3.0991   -0.8454 H         1 <0>         0.0879
     72 H31         1.2421   -4.9090    0.8653 H         1 <0>         0.0743
     73 H32        -0.2135   -3.9371    1.1924 H         1 <0>         0.0682
     74 H33        -0.1735   -6.6366   -0.2323 H         1 <0>         0.0636
     75 H34        -0.6598   -6.3717    1.4591 H         1 <0>         0.0628
     76 H35        -2.6463   -6.4687   -0.0084 H         1 <0>         0.0729
     77 H36        -2.4637   -4.8397    0.6868 H         1 <0>         0.0675
     78 H37        -2.9607   -4.6259   -1.6928 H         1 <0>         0.0910
     79 H38        -1.6254   -5.7330   -2.1034 H         1 <0>         0.0701
@<TRIPOS>BOND
     1    1    2 1
     2    1   44 1
     3    1   45 1
     4    1   46 1
     5    2    3 1
     6    2    4 1
     7    2   47 1
     8    3   48 1
     9    3   49 1
    10    3   50 1
    11    4    8 1
    12    4    5 2
    13    5    6 1
    14    5   35 1
    15    6    7 2
    16    6   29 1
    17    7    8 1
    18    7   22 1
    19    8    9 1
    20    9   10 1
    21    9   51 1
    22    9   52 1
    23   10   11 1
    24   10   53 1
    25   10   54 1
    26   11   12 1
    27   11   13 1
    28   11   21 1
    29   13   14 1
    30   13   55 1
    31   13   56 1
    32   14   15 1
    33   14   16 1
    34   14   20 1
    35   16   17 1
    36   16   57 1
    37   16   58 1
    38   17   18 2
    39   17   19 1
    40   20   59 1
    41   21   60 1
    42   22   27 ar
    43   22   23 ar
    44   23   24 ar
    45   23   61 1
    46   24   25 ar
    47   24   62 1
    48   25   26 ar
    49   25   28 1
    50   26   27 ar
    51   26   63 1
    52   27   64 1
    53   29   34 ar
    54   29   30 ar
    55   30   31 ar
    56   30   65 1
    57   31   32 ar
    58   31   66 1
    59   32   33 ar
    60   32   67 1
    61   33   34 ar
    62   33   68 1
    63   34   69 1
    64   35   36 2
    65   35   37 2
    66   35   38 1
    67   38   43 1
    68   38   39 1
    69   39   40 1
    70   39   70 1
    71   39   71 1
    72   40   41 1
    73   40   72 1
    74   40   73 1
    75   41   42 1
    76   41   74 1
    77   41   75 1
    78   42   43 1
    79   42   76 1
    80   42   77 1
    81   43   78 1
    82   43   79 1
@<TRIPOS>MOLECULE
CHEMBL429487
   76    79     0     0     0
SMALL
USER_CHARGES

@<TRIPOS>ATOM
      1 C1         -0.2413    1.1119    0.1719 C.3       1 <0>        -0.1616
      2 C2         -0.1402   -0.3939   -0.0798 C.3       1 <0>        -0.0713
      3 C3         -1.5438   -1.0023   -0.1038 C.3       1 <0>        -0.1535
      4 C4          0.5356   -0.6375   -1.4045 C.2       1 <0>         0.1736
      5 C5          1.6180   -1.4154   -1.5987 C.2       1 <0>        -0.7346
      6 C6          1.9334   -1.3760   -2.9779 C.2       1 <0>        -0.0217
      7 C7          0.9990   -0.5499   -3.5792 C.2       1 <0>         0.0594
      8 N1          0.1461   -0.1105   -2.6009 N.pl3     1 <0>        -0.4118
      9 C8         -0.9966    0.7831   -2.8060 C.3       1 <0>         0.0838
     10 C9         -0.5194    2.2365   -2.7754 C.3       1 <0>        -0.1772
     11 C10        -1.7205    3.1710   -2.9334 C.3       1 <0>         0.1184
     12 H1         -2.2658    2.9116   -3.8409 H         1 <0>         0.0999
     13 C11        -1.2320    4.6178   -3.0279 C.3       1 <0>        -0.1860
     14 C12        -2.4198    5.5398   -3.3104 C.3       1 <0>         0.1388
     15 H2         -2.9407    5.1977   -4.2047 H         1 <0>         0.0929
     16 C13        -1.9164    6.9680   -3.5285 C.3       1 <0>        -0.2197
     17 C14        -3.0699    7.8520   -3.9272 C.2       1 <0>         0.4909
     18 O1         -4.1909    7.3831   -4.0277 O.co2     1 <0>        -0.6814
     19 O2         -2.8823    9.0360   -4.1494 O.co2     1 <0>        -0.7120
     20 O3         -3.3167    5.5155   -2.1982 O.3       1 <0>        -0.5277
     21 O4         -2.5837    3.0326   -1.8030 O.3       1 <0>        -0.5402
     22 C15         0.9306   -0.2092   -5.0142 C.ar      1 <0>        -0.0269
     23 C16        -0.2963   -0.2272   -5.6813 C.ar      1 <0>        -0.0858
     24 C17        -0.3540    0.0919   -7.0217 C.ar      1 <0>        -0.1472
     25 C18         0.8024    0.4296   -7.7068 C.ar      1 <0>         0.1048
     26 C19         2.0227    0.4492   -7.0501 C.ar      1 <0>        -0.1470
     27 C20         2.0918    0.1380   -5.7084 C.ar      1 <0>        -0.0611
     28 F1          0.7399    0.7404   -9.0201 F         1 <0>        -0.1371
     29 C21         3.0492   -2.0830   -3.6493 C.ar      1 <0>        -0.0344
     30 C22         4.3699   -1.7578   -3.3419 C.ar      1 <0>        -0.0606
     31 C23         5.4048   -2.4200   -3.9701 C.ar      1 <0>        -0.1212
     32 C24         5.1341   -3.4045   -4.9035 C.ar      1 <0>        -0.1148
     33 C25         3.8259   -3.7312   -5.2130 C.ar      1 <0>        -0.1282
     34 C26         2.7827   -3.0803   -4.5869 C.ar      1 <0>        -0.0986
     35 S1          2.4854   -2.3186   -0.3591 S.o2      1 <0>         2.7273
     36 O5          3.8044   -2.5167   -0.8491 O.2       1 <0>        -0.9469
     37 O6          2.2214   -1.6684    0.8766 O.2       1 <0>        -0.9616
     38 N2          1.7855   -3.8164   -0.2648 N.pl3     1 <0>        -1.0112
     39 C27         0.6599   -4.1829    0.6071 C.3       1 <0>         0.1168
     40 C28         0.3687   -5.6804    0.3744 C.3       1 <0>        -0.1286
     41 C29         1.7103   -6.2106   -0.1970 C.3       1 <0>        -0.1294
     42 C30         2.1838   -5.0016   -1.0459 C.3       1 <0>         0.1189
     43 H3          0.7502    1.5593    0.1019 H         1 <0>         0.0610
     44 H4         -0.8964    1.5618   -0.5741 H         1 <0>         0.0688
     45 H5         -0.6496    1.2873    1.1672 H         1 <0>         0.0722
     46 H6          0.4430   -0.8570    0.7162 H         1 <0>         0.1304
     47 H7         -2.0907   -0.6204   -0.9659 H         1 <0>         0.0592
     48 H8         -1.4683   -2.0875   -0.1730 H         1 <0>         0.0595
     49 H9         -2.0725   -0.7325    0.8105 H         1 <0>         0.0737
     50 H10        -1.4546    0.5714   -3.7722 H         1 <0>         0.0963
     51 H11        -1.7287    0.6243   -2.0143 H         1 <0>         0.1141
     52 H12        -0.0258    2.4368   -1.8245 H         1 <0>         0.0828
     53 H13         0.1825    2.4057   -3.5919 H         1 <0>         0.0796
     54 H14        -0.7645    4.9057   -2.0863 H         1 <0>         0.0643
     55 H15        -0.5051    4.7039   -3.8356 H         1 <0>         0.0745
     56 H16        -1.4740    7.3423   -2.6052 H         1 <0>         0.0566
     57 H17        -1.1656    6.9719   -4.3187 H         1 <0>         0.0608
     58 H18        -2.9198    5.8083   -1.3664 H         1 <0>         0.3504
     59 H19        -2.1639    3.2477   -0.9589 H         1 <0>         0.3662
     60 H20        -1.1980   -0.4909   -5.1486 H         1 <0>         0.1311
     61 H21        -1.3022    0.0783   -7.5386 H         1 <0>         0.1397
     62 H22         2.9206    0.7127   -7.5892 H         1 <0>         0.1392
     63 H23         3.0426    0.1579   -5.1966 H         1 <0>         0.1359
     64 H24         4.5824   -0.9889   -2.6138 H         1 <0>         0.1221
     65 H25         6.4280   -2.1690   -3.7328 H         1 <0>         0.1209
     66 H26         5.9474   -3.9198   -5.3929 H         1 <0>         0.1181
     67 H27         3.6208   -4.5004   -5.9429 H         1 <0>         0.1190
     68 H28         1.7618   -3.3393   -4.8260 H         1 <0>         0.1164
     69 H29         0.9289   -4.0153    1.6500 H         1 <0>         0.0726
     70 H30        -0.2176   -3.5901    0.3486 H         1 <0>         0.0650
     71 H31         0.1268   -6.1769    1.3141 H         1 <0>         0.0811
     72 H32        -0.4362   -5.8089   -0.3493 H         1 <0>         0.0754
     73 H33         2.4163   -6.4304    0.6038 H         1 <0>         0.0766
     74 H34         1.5485   -7.0870   -0.8246 H         1 <0>         0.0820
     75 H35         1.6887   -4.9999   -2.0170 H         1 <0>         0.0661
     76 H36         3.2662   -5.0272   -1.1711 H         1 <0>         0.0825
@<TRIPOS>BOND
     1    1    2 1
     2    1   43 1
     3    1   44 1
     4    1   45 1
     5    2    3 1
     6    2    4 1
     7    2   46 1
     8    3   47 1
     9    3   48 1
    10    3   49 1
    11    4    8 1
    12    4    5 2
    13    5    6 1
    14    5   35 1
    15    6    7 2
    16    6   29 1
    17    7    8 1
    18    7   22 1
    19    8    9 1
    20    9   10 1
    21    9   50 1
    22    9   51 1
    23   10   11 1
    24   10   52 1
    25   10   53 1
    26   11   12 1
    27   11   13 1
    28   11   21 1
    29   13   14 1
    30   13   54 1
    31   13   55 1
    32   14   15 1
    33   14   16 1
    34   14   20 1
    35   16   17 1
    36   16   56 1
    37   16   57 1
    38   17   18 2
    39   17   19 1
    40   20   58 1
    41   21   59 1
    42   22   27 ar
    43   22   23 ar
    44   23   24 ar
    45   23   60 1
    46   24   25 ar
    47   24   61 1
    48   25   26 ar
    49   25   28 1
    50   26   27 ar
    51   26   62 1
    52   27   63 1
    53   29   34 ar
    54   29   30 ar
    55   30   31 ar
    56   30   64 1
    57   31   32 ar
    58   31   65 1
    59   32   33 ar
    60   32   66 1
    61   33   34 ar
    62   33   67 1
    63   34   68 1
    64   35   36 2
    65   35   37 2
    66   35   38 1
    67   38   42 1
    68   38   39 1
    69   39   40 1
    70   39   69 1
    71   39   70 1
    72   40   41 1
    73   40   71 1
    74   40   72 1
    75   41   42 1
    76   41   73 1
    77   41   74 1
    78   42   75 1
    79   42   76 1
@<TRIPOS>MOLECULE
CHEMBL303523
   63    66     0     0     0
SMALL
USER_CHARGES

@<TRIPOS>ATOM
      1 C1         -0.0187    1.5258    0.0104 C.3       1 <0>        -0.1435
      2 C2          0.0021   -0.0041    0.0020 C.3       1 <0>        -0.0149
      3 C3          0.7421   -0.5109    1.2415 C.3       1 <0>        -0.1434
      4 C4         -1.4117   -0.5257    0.0127 C.2       1 <0>         0.1184
      5 C5         -1.9929   -1.3464   -0.9743 C.2       1 <0>        -0.1668
      6 C6         -3.3031   -1.5971   -0.5822 C.2       1 <0>         0.1489
      7 N1         -3.4951   -0.9447    0.6030 N.pl3     1 <0>        -0.3224
      8 N2         -2.3012   -0.2974    0.9410 N.2       1 <0>        -0.2734
      9 C7         -4.6741   -0.9297    1.3480 C.ar      1 <0>         0.4026
     10 C8         -4.6085   -0.6919    2.7269 C.ar      1 <0>        -0.1609
     11 C9         -5.7524   -0.6743    3.4682 C.ar      1 <0>        -0.0370
     12 C10        -6.9778   -0.8995    2.8096 C.ar      1 <0>        -0.1141
     13 C11        -8.1938   -0.8948    3.5109 C.ar      1 <0>        -0.0904
     14 C12        -9.3585   -1.1159    2.8407 C.ar      1 <0>        -0.1179
     15 C13        -9.3597   -1.3470    1.4668 C.ar      1 <0>        -0.0938
     16 C14        -8.1991   -1.3584    0.7560 C.ar      1 <0>        -0.0924
     17 C15        -6.9765   -1.1341    1.4126 C.ar      1 <0>         0.1578
     18 N3         -5.8221   -1.1341    0.7378 N.ar      1 <0>        -0.4840
     19 C16        -4.2973   -2.4120   -1.3083 C.ar      1 <0>        -0.0330
     20 C17        -4.4497   -2.2660   -2.6890 C.ar      1 <0>        -0.0487
     21 C18        -5.3799   -3.0298   -3.3618 C.ar      1 <0>        -0.1528
     22 C19        -6.1633   -3.9406   -2.6706 C.ar      1 <0>         0.1121
     23 C20        -6.0168   -4.0894   -1.3004 C.ar      1 <0>        -0.1560
     24 C21        -5.0852   -3.3358   -0.6180 C.ar      1 <0>        -0.0418
     25 F1         -7.0734   -4.6859   -3.3349 F         1 <0>        -0.1379
     26 C22        -1.3337   -1.8467   -2.1968 C.2       1 <0>        -0.0914
     27 C23        -1.3912   -3.1371   -2.5009 C.2       1 <0>        -0.1638
     28 C24        -0.7182   -3.6478   -3.7488 C.3       1 <0>         0.1431
     29 C25         0.2476   -4.7764   -3.3820 C.3       1 <0>        -0.1804
     30 C26         0.8372   -5.3783   -4.6591 C.3       1 <0>         0.1374
     31 H1          0.0289   -5.6950   -5.3183 H         1 <0>         0.0931
     32 C27         1.7054   -6.5859   -4.3001 C.3       1 <0>        -0.2193
     33 C28         2.1863   -7.2522   -5.5634 C.2       1 <0>         0.4907
     34 O1          1.8646   -6.8028   -6.6501 O.co2     1 <0>        -0.6810
     35 O2          2.8972   -8.2406   -5.4987 O.co2     1 <0>        -0.7137
     36 O3          1.6367   -4.3975   -5.3230 O.3       1 <0>        -0.5279
     37 O4          0.0064   -2.5836   -4.3689 O.3       1 <0>        -0.5383
     38 H2          1.0039    1.9031    0.0027 H         1 <0>         0.0646
     39 H3         -0.5459    1.8868   -0.8726 H         1 <0>         0.0569
     40 H4         -0.5289    1.8773    0.9072 H         1 <0>         0.0598
     41 H5          0.5123   -0.3556   -0.8948 H         1 <0>         0.0958
     42 H6          0.2319   -0.1594    2.1383 H         1 <0>         0.0598
     43 H7          0.7568   -1.6008    1.2356 H         1 <0>         0.0572
     44 H8          1.7647   -0.1336    1.2338 H         1 <0>         0.0647
     45 H9         -3.6534   -0.5232    3.2019 H         1 <0>         0.1488
     46 H10        -5.7203   -0.4928    4.5324 H         1 <0>         0.1490
     47 H11        -8.2056   -0.7173    4.5761 H         1 <0>         0.1319
     48 H12       -10.2934   -1.1125    3.3814 H         1 <0>         0.1291
     49 H13       -10.2964   -1.5201    0.9578 H         1 <0>         0.1321
     50 H14        -8.2173   -1.5393   -0.3086 H         1 <0>         0.1364
     51 H15        -3.8403   -1.5561   -3.2285 H         1 <0>         0.1378
     52 H16        -5.4986   -2.9178   -4.4294 H         1 <0>         0.1411
     53 H17        -6.6305   -4.8001   -0.7668 H         1 <0>         0.1345
     54 H18        -4.9683   -3.4563    0.4489 H         1 <0>         0.1168
     55 H19        -0.8046   -1.1625   -2.8436 H         1 <0>         0.1316
     56 H20        -1.9202   -3.8213   -1.8541 H         1 <0>         0.1106
     57 H21        -1.4721   -4.0250   -4.4398 H         1 <0>         0.1075
     58 H22         1.0518   -4.3794   -2.7626 H         1 <0>         0.0642
     59 H23        -0.2886   -5.5485   -2.8303 H         1 <0>         0.0741
     60 H24         2.5632   -6.2554   -3.7144 H         1 <0>         0.0563
     61 H25         1.1182   -7.2948   -3.7163 H         1 <0>         0.0607
     62 H26         2.3768   -4.0696   -4.7940 H         1 <0>         0.3500
     63 H27         0.6955   -2.1990   -3.8101 H         1 <0>         0.3658
@<TRIPOS>BOND
     1    1    2 1
     2    1   38 1
     3    1   39 1
     4    1   40 1
     5    2    3 1
     6    2    4 1
     7    2   41 1
     8    3   42 1
     9    3   43 1
    10    3   44 1
    11    4    8 2
    12    4    5 1
    13    5    6 2
    14    5   26 1
    15    6    7 1
    16    6   19 1
    17    7    8 1
    18    7    9 1
    19    9   18 ar
    20    9   10 ar
    21   10   11 ar
    22   10   45 1
    23   11   12 ar
    24   11   46 1
    25   12   17 ar
    26   12   13 ar
    27   13   14 ar
    28   13   47 1
    29   14   15 ar
    30   14   48 1
    31   15   16 ar
    32   15   49 1
    33   16   17 ar
    34   16   50 1
    35   17   18 ar
    36   19   24 ar
    37   19   20 ar
    38   20   21 ar
    39   20   51 1
    40   21   22 ar
    41   21   52 1
    42   22   23 ar
    43   22   25 1
    44   23   24 ar
    45   23   53 1
    46   24   54 1
    47   26   27 2
    48   26   55 1
    49   27   28 1
    50   27   56 1
    51   28   29 1
    52   28   37 1
    53   28   57 1
    54   29   30 1
    55   29   58 1
    56   29   59 1
    57   30   31 1
    58   30   32 1
    59   30   36 1
    60   32   33 1
    61   32   60 1
    62   32   61 1
    63   33   34 2
    64   33   35 1
    65   36   62 1
    66   37   63 1
@<TRIPOS>MOLECULE
CHEMBL303523__1
   63    66     0     0     0
SMALL
USER_CHARGES

@<TRIPOS>ATOM
      1 C1         -0.0187    1.5258    0.0104 C.3       1 <0>        -0.1434
      2 C2          0.0021   -0.0041    0.0020 C.3       1 <0>        -0.0163
      3 C3          0.7421   -0.5109    1.2415 C.3       1 <0>        -0.1432
      4 C4         -1.4117   -0.5257    0.0127 C.2       1 <0>         0.1198
      5 C5         -1.9929   -1.3464   -0.9743 C.2       1 <0>        -0.1709
      6 C6         -3.3031   -1.5971   -0.5822 C.2       1 <0>         0.1518
      7 N1         -3.4951   -0.9447    0.6030 N.pl3     1 <0>        -0.3224
      8 N2         -2.3012   -0.2974    0.9410 N.2       1 <0>        -0.2732
      9 C7         -4.6741   -0.9297    1.3480 C.ar      1 <0>         0.4024
     10 C8         -4.6085   -0.6919    2.7269 C.ar      1 <0>        -0.1608
     11 C9         -5.7524   -0.6743    3.4682 C.ar      1 <0>        -0.0370
     12 C10        -6.9778   -0.8995    2.8096 C.ar      1 <0>        -0.1140
     13 C11        -8.1938   -0.8948    3.5109 C.ar      1 <0>        -0.0904
     14 C12        -9.3585   -1.1159    2.8407 C.ar      1 <0>        -0.1179
     15 C13        -9.3597   -1.3470    1.4668 C.ar      1 <0>        -0.0939
     16 C14        -8.1991   -1.3584    0.7560 C.ar      1 <0>        -0.0923
     17 C15        -6.9765   -1.1341    1.4126 C.ar      1 <0>         0.1577
     18 N3         -5.8221   -1.1341    0.7378 N.ar      1 <0>        -0.4837
     19 C16        -4.2973   -2.4120   -1.3083 C.ar      1 <0>        -0.0347
     20 C17        -4.4497   -2.2660   -2.6890 C.ar      1 <0>        -0.0449
     21 C18        -5.3799   -3.0298   -3.3618 C.ar      1 <0>        -0.1491
     22 C19        -6.1633   -3.9406   -2.6706 C.ar      1 <0>         0.1117
     23 C20        -6.0168   -4.0894   -1.3004 C.ar      1 <0>        -0.1570
     24 C21        -5.0852   -3.3358   -0.6180 C.ar      1 <0>        -0.0422
     25 F1         -7.0734   -4.6859   -3.3349 F         1 <0>        -0.1383
     26 C22        -1.3337   -1.8467   -2.1968 C.2       1 <0>        -0.0796
     27 C23        -1.3912   -3.1371   -2.5009 C.2       1 <0>        -0.1615
     28 C24        -0.7182   -3.6478   -3.7488 C.3       1 <0>         0.1418
     29 C25         0.3371   -4.6888   -3.3696 C.3       1 <0>        -0.1817
     30 C26         1.1054   -5.1157   -4.6219 C.3       1 <0>         0.1355
     31 H1          0.4023   -5.4651   -5.3781 H         1 <0>         0.1023
     32 C27         2.0741   -6.2451   -4.2657 C.3       1 <0>        -0.2183
     33 C28         2.7414   -6.7489   -5.5195 C.2       1 <0>         0.4904
     34 O1          2.4674   -6.2507   -6.5981 O.co2     1 <0>        -0.6806
     35 O2          3.5551   -7.6545   -5.4553 O.co2     1 <0>        -0.7133
     36 O3          1.8400   -4.0016   -5.1331 O.3       1 <0>        -0.5414
     37 O4         -1.6930   -4.2476   -4.6043 O.3       1 <0>        -0.5479
     38 H2          1.0039    1.9031    0.0027 H         1 <0>         0.0649
     39 H3         -0.5459    1.8868   -0.8726 H         1 <0>         0.0567
     40 H4         -0.5289    1.8773    0.9072 H         1 <0>         0.0599
     41 H5          0.5123   -0.3556   -0.8948 H         1 <0>         0.0964
     42 H6          0.2319   -0.1594    2.1383 H         1 <0>         0.0598
     43 H7          0.7568   -1.6008    1.2356 H         1 <0>         0.0574
     44 H8          1.7647   -0.1336    1.2338 H         1 <0>         0.0650
     45 H9         -3.6534   -0.5232    3.2019 H         1 <0>         0.1489
     46 H10        -5.7203   -0.4928    4.5324 H         1 <0>         0.1490
     47 H11        -8.2056   -0.7173    4.5761 H         1 <0>         0.1320
     48 H12       -10.2934   -1.1125    3.3814 H         1 <0>         0.1292
     49 H13       -10.2964   -1.5201    0.9578 H         1 <0>         0.1321
     50 H14        -8.2173   -1.5393   -0.3086 H         1 <0>         0.1364
     51 H15        -3.8403   -1.5561   -3.2285 H         1 <0>         0.1369
     52 H16        -5.4986   -2.9178   -4.4294 H         1 <0>         0.1414
     53 H17        -6.6305   -4.8001   -0.7668 H         1 <0>         0.1339
     54 H18        -4.9683   -3.4563    0.4489 H         1 <0>         0.1162
     55 H19        -0.8046   -1.1625   -2.8436 H         1 <0>         0.1257
     56 H20        -1.9202   -3.8213   -1.8541 H         1 <0>         0.1071
     57 H21        -0.2396   -2.8181   -4.2691 H         1 <0>         0.1091
     58 H22         1.0302   -4.2571   -2.6476 H         1 <0>         0.0696
     59 H23        -0.1517   -5.5579   -2.9293 H         1 <0>         0.0688
     60 H24         2.8311   -5.8706   -3.5766 H         1 <0>         0.0563
     61 H25         1.5247   -7.0598   -3.7940 H         1 <0>         0.0612
     62 H26         2.4860   -3.6381   -4.5120 H         1 <0>         0.3536
     63 H27        -2.1597   -4.9949   -4.2056 H         1 <0>         0.3689
@<TRIPOS>BOND
     1    1    2 1
     2    1   38 1
     3    1   39 1
     4    1   40 1
     5    2    3 1
     6    2    4 1
     7    2   41 1
     8    3   42 1
     9    3   43 1
    10    3   44 1
    11    4    8 2
    12    4    5 1
    13    5    6 2
    14    5   26 1
    15    6    7 1
    16    6   19 1
    17    7    8 1
    18    7    9 1
    19    9   18 ar
    20    9   10 ar
    21   10   11 ar
    22   10   45 1
    23   11   12 ar
    24   11   46 1
    25   12   17 ar
    26   12   13 ar
    27   13   14 ar
    28   13   47 1
    29   14   15 ar
    30   14   48 1
    31   15   16 ar
    32   15   49 1
    33   16   17 ar
    34   16   50 1
    35   17   18 ar
    36   19   24 ar
    37   19   20 ar
    38   20   21 ar
    39   20   51 1
    40   21   22 ar
    41   21   52 1
    42   22   23 ar
    43   22   25 1
    44   23   24 ar
    45   23   53 1
    46   24   54 1
    47   26   27 2
    48   26   55 1
    49   27   28 1
    50   27   56 1
    51   28   29 1
    52   28   37 1
    53   28   57 1
    54   29   30 1
    55   29   58 1
    56   29   59 1
    57   30   31 1
    58   30   32 1
    59   30   36 1
    60   32   33 1
    61   32   60 1
    62   32   61 1
    63   33   34 2
    64   33   35 1
    65   36   62 1
    66   37   63 1
@<TRIPOS>MOLECULE
CHEMBL400973
   76    79     0     0     0
SMALL
USER_CHARGES

@<TRIPOS>ATOM
      1 C1          0.9730    0.5922    0.4870 C.3       1 <0>        -0.1706
      2 C2          0.5939   -0.8901    0.4993 C.3       1 <0>         0.1184
      3 C3          0.7086   -1.4340    1.9247 C.3       1 <0>        -0.1727
      4 N1         -0.7839   -1.0457    0.0266 N.pl3     1 <0>        -0.4006
      5 C4         -1.1629   -1.7410   -1.0726 C.2       1 <0>         0.0771
      6 C5         -2.5179   -1.6675   -1.2009 C.2       1 <0>        -0.1211
      7 C6         -3.0056   -0.8845   -0.1234 C.2       1 <0>        -0.0546
      8 C7         -1.8997   -0.5137    0.6320 C.2       1 <0>        -0.0365
      9 C8         -1.9179    0.2987    1.8496 C.2       1 <0>         0.6059
     10 O1         -1.7886    1.5071    1.7771 O.2       1 <0>        -0.4988
     11 N2         -2.0776   -0.2911    3.0509 N.am      1 <0>        -0.6641
     12 C9         -2.2366    0.4928    4.2001 C.ar      1 <0>         0.1405
     13 C10        -2.8990    1.7110    4.1239 C.ar      1 <0>        -0.1012
     14 C11        -3.0558    2.4833    5.2578 C.ar      1 <0>        -0.1235
     15 C12        -2.5514    2.0428    6.4727 C.ar      1 <0>         0.0892
     16 C13        -1.8891    0.8263    6.5495 C.ar      1 <0>        -0.1241
     17 C14        -1.7369    0.0500    5.4177 C.ar      1 <0>        -0.1278
     18 O2         -2.7058    2.8041    7.5887 O.3       1 <0>        -0.4988
     19 C15        -4.4187   -0.5355    0.1473 C.ar      1 <0>        -0.0129
     20 C16        -5.1262    0.2663   -0.7487 C.ar      1 <0>        -0.0946
     21 C17        -6.4428    0.5881   -0.4908 C.ar      1 <0>        -0.1180
     22 C18        -7.0616    0.1174    0.6537 C.ar      1 <0>        -0.1200
     23 C19        -6.3652   -0.6777    1.5464 C.ar      1 <0>        -0.1190
     24 C20        -5.0500   -1.0116    1.2966 C.ar      1 <0>        -0.1077
     25 C21        -3.3331   -2.2917   -2.2717 C.ar      1 <0>        -0.0098
     26 C22        -3.1838   -1.8787   -3.5944 C.ar      1 <0>        -0.0811
     27 C23        -3.9438   -2.4624   -4.5872 C.ar      1 <0>        -0.1504
     28 C24        -4.8543   -3.4575   -4.2708 C.ar      1 <0>         0.0956
     29 C25        -5.0064   -3.8707   -2.9573 C.ar      1 <0>        -0.1508
     30 C26        -4.2464   -3.2967   -1.9588 C.ar      1 <0>        -0.0728
     31 F1         -5.5964   -4.0262   -5.2460 F         1 <0>        -0.1415
     32 C27        -0.2350   -2.4770   -2.0045 C.3       1 <0>        -0.0546
     33 C28        -0.0607   -3.9172   -1.5183 C.3       1 <0>        -0.1433
     34 C29         0.8814   -4.6644   -2.4644 C.3       1 <0>         0.1134
     35 H1          0.5039   -4.5927   -3.4844 H         1 <0>         0.0985
     36 C30         0.9579   -6.1355   -2.0511 C.3       1 <0>        -0.1859
     37 C31         1.7996   -6.9081   -3.0688 C.3       1 <0>         0.1374
     38 H2          1.3900   -6.7580   -4.0677 H         1 <0>         0.0928
     39 C32         1.7734   -8.3988   -2.7255 C.3       1 <0>        -0.2192
     40 C33         2.4992   -9.1734   -3.7951 C.2       1 <0>         0.4903
     41 O3          2.9918   -8.5875   -4.7441 O.co2     1 <0>        -0.6809
     42 O4          2.5939  -10.3861   -3.7116 O.co2     1 <0>        -0.7132
     43 O5          3.1471   -6.4340   -3.0303 O.3       1 <0>        -0.5278
     44 O6          2.1846   -4.0822   -2.3968 O.3       1 <0>        -0.5415
     45 H3          2.0369    0.6969    0.6997 H         1 <0>         0.0776
     46 H4          0.7553    1.0147   -0.4939 H         1 <0>         0.0677
     47 H5          0.3968    1.1208    1.2463 H         1 <0>         0.0718
     48 H6          1.2674   -1.4428   -0.1558 H         1 <0>         0.1119
     49 H7          0.1317   -0.8038    2.6016 H         1 <0>         0.0644
     50 H8          0.3210   -2.4522    1.9573 H         1 <0>         0.0686
     51 H9          1.7547   -1.4334    2.2308 H         1 <0>         0.0828
     52 H10        -2.0825   -1.2587    3.1193 H         1 <0>         0.4128
     53 H11        -3.2912    2.0543    3.1780 H         1 <0>         0.1383
     54 H12        -3.5710    3.4307    5.1987 H         1 <0>         0.1322
     55 H13        -1.4964    0.4843    7.4956 H         1 <0>         0.1330
     56 H14        -1.2256   -0.8993    5.4786 H         1 <0>         0.1307
     57 H15        -3.5163    2.6185    8.0824 H         1 <0>         0.3892
     58 H16        -4.6441    0.6345   -1.6423 H         1 <0>         0.1212
     59 H17        -6.9915    1.2089   -1.1835 H         1 <0>         0.1216
     60 H18        -8.0924    0.3720    0.8512 H         1 <0>         0.1196
     61 H19        -6.8535   -1.0415    2.4384 H         1 <0>         0.1204
     62 H20        -4.5088   -1.6363    1.9918 H         1 <0>         0.1159
     63 H21        -2.4745   -1.1028   -3.8419 H         1 <0>         0.1312
     64 H22        -3.8290   -2.1428   -5.6124 H         1 <0>         0.1350
     65 H23        -5.7179   -4.6463   -2.7150 H         1 <0>         0.1337
     66 H24        -4.3624   -3.6226   -0.9357 H         1 <0>         0.1288
     67 H25        -0.6575   -2.4814   -3.0093 H         1 <0>         0.0912
     68 H26         0.7345   -1.9789   -2.0201 H         1 <0>         0.0810
     69 H27         0.3618   -3.9128   -0.5135 H         1 <0>         0.0608
     70 H28        -1.0301   -4.4152   -1.5026 H         1 <0>         0.0759
     71 H29         1.4178   -6.2127   -1.0659 H         1 <0>         0.0610
     72 H30        -0.0471   -6.5560   -2.0168 H         1 <0>         0.0739
     73 H31         2.2633   -8.5592   -1.7651 H         1 <0>         0.0555
     74 H32         0.7399   -8.7402   -2.6676 H         1 <0>         0.0608
     75 H33         3.5755   -6.5361   -2.1694 H         1 <0>         0.3491
     76 H34         2.5830   -4.1108   -1.5161 H         1 <0>         0.3625
@<TRIPOS>BOND
     1    1    2 1
     2    1   45 1
     3    1   46 1
     4    1   47 1
     5    2    3 1
     6    2    4 1
     7    2   48 1
     8    3   49 1
     9    3   50 1
    10    3   51 1
    11    4    8 1
    12    4    5 1
    13    5    6 2
    14    5   32 1
    15    6    7 1
    16    6   25 1
    17    7    8 2
    18    7   19 1
    19    8    9 1
    20    9   10 2
    21    9   11 am
    22   11   12 1
    23   11   52 1
    24   12   17 ar
    25   12   13 ar
    26   13   14 ar
    27   13   53 1
    28   14   15 ar
    29   14   54 1
    30   15   16 ar
    31   15   18 1
    32   16   17 ar
    33   16   55 1
    34   17   56 1
    35   18   57 1
    36   19   24 ar
    37   19   20 ar
    38   20   21 ar
    39   20   58 1
    40   21   22 ar
    41   21   59 1
    42   22   23 ar
    43   22   60 1
    44   23   24 ar
    45   23   61 1
    46   24   62 1
    47   25   30 ar
    48   25   26 ar
    49   26   27 ar
    50   26   63 1
    51   27   28 ar
    52   27   64 1
    53   28   29 ar
    54   28   31 1
    55   29   30 ar
    56   29   65 1
    57   30   66 1
    58   32   33 1
    59   32   67 1
    60   32   68 1
    61   33   34 1
    62   33   69 1
    63   33   70 1
    64   34   35 1
    65   34   36 1
    66   34   44 1
    67   36   37 1
    68   36   71 1
    69   36   72 1
    70   37   38 1
    71   37   39 1
    72   37   43 1
    73   39   40 1
    74   39   73 1
    75   39   74 1
    76   40   41 2
    77   40   42 1
    78   43   75 1
    79   44   76 1
@<TRIPOS>MOLECULE
CHEMBL520068
   67    69     0     0     0
SMALL
USER_CHARGES

@<TRIPOS>ATOM
      1 C1          0.8009   -0.9117    0.3372 C.3       1 <0>        -0.1784
      2 C2         -0.2138    0.1552   -0.0788 C.3       1 <0>         0.1082
      3 C3          0.2138    0.7736   -1.4113 C.3       1 <0>        -0.1655
      4 N1         -1.5353   -0.4594   -0.2273 N.pl3     1 <0>        -0.3970
      5 C4         -1.8390   -1.5305   -0.9950 C.2       1 <0>         0.0470
      6 C5         -3.1765   -1.7672   -0.8414 C.2       1 <0>         0.0338
      7 N2         -3.6647   -0.8522    0.0045 N.2       1 <0>        -0.4279
      8 C6         -2.6882   -0.0597    0.3890 C.2       1 <0>         0.1309
      9 C7         -2.8163    1.0726    1.3245 C.2       1 <0>         0.6153
     10 O1         -1.8643    1.8003    1.5323 O.2       1 <0>        -0.5373
     11 N3         -3.9883    1.3012    1.9494 N.am      1 <0>        -0.7040
     12 C8         -4.1155    2.4264    2.8789 C.3       1 <0>         0.1632
     13 C9         -5.5146    2.4605    3.4379 C.ar      1 <0>        -0.0823
     14 C10        -6.5011    3.1789    2.7879 C.ar      1 <0>        -0.1080
     15 C11        -7.7848    3.2111    3.2993 C.ar      1 <0>        -0.0908
     16 C12        -8.0837    2.5254    4.4616 C.ar      1 <0>        -0.1444
     17 C13        -7.0968    1.8057    5.1133 C.ar      1 <0>         0.0979
     18 C14        -5.8125    1.7692    4.5966 C.ar      1 <0>        -0.1330
     19 F1         -7.3876    1.1354    6.2496 F         1 <0>        -0.1372
     20 C15        -3.9516   -2.8494   -1.4978 C.ar      1 <0>        -0.0067
     21 C16        -4.8824   -3.5845   -0.7666 C.ar      1 <0>        -0.0661
     22 C17        -5.6012   -4.5894   -1.3809 C.ar      1 <0>        -0.1522
     23 C18        -5.3985   -4.8679   -2.7228 C.ar      1 <0>         0.0996
     24 C19        -4.4738   -4.1398   -3.4535 C.ar      1 <0>        -0.1481
     25 C20        -3.7548   -3.1293   -2.8485 C.ar      1 <0>        -0.0795
     26 F2         -6.1044   -5.8527   -3.3204 F         1 <0>        -0.1395
     27 C21        -0.8836   -2.3147   -1.8571 C.3       1 <0>        -0.0587
     28 C22        -0.3898   -3.5407   -1.0863 C.3       1 <0>        -0.1520
     29 C23         0.5947   -4.3266   -1.9546 C.3       1 <0>         0.1145
     30 H1          0.1237   -4.5723   -2.9064 H         1 <0>         0.0997
     31 C24         0.9927   -5.6165   -1.2345 C.3       1 <0>        -0.1868
     32 C25         1.8779   -6.4611   -2.1531 C.3       1 <0>         0.1380
     33 H2          1.3621   -6.6323   -3.0980 H         1 <0>         0.0931
     34 C26         2.1733   -7.8044   -1.4828 C.3       1 <0>        -0.2195
     35 C27         2.9413   -8.6833   -2.4360 C.2       1 <0>         0.4905
     36 O2          3.2259   -8.2734   -3.5484 O.co2     1 <0>        -0.6811
     37 O3          3.2780   -9.8044   -2.0948 O.co2     1 <0>        -0.7131
     38 O4          3.1050   -5.7711   -2.3984 O.3       1 <0>        -0.5279
     39 O5          1.7599   -3.5337   -2.1904 O.3       1 <0>        -0.5408
     40 H3          1.7701   -0.4437    0.5098 H         1 <0>         0.0824
     41 H4          0.4634   -1.3966    1.2532 H         1 <0>         0.0626
     42 H5          0.8922   -1.6549   -0.4549 H         1 <0>         0.0818
     43 H6         -0.2580    0.9319    0.6847 H         1 <0>         0.1323
     44 H7          0.1703    0.0162   -2.1940 H         1 <0>         0.0702
     45 H8         -0.4574    1.5948   -1.6628 H         1 <0>         0.0629
     46 H9          1.2330    1.1504   -1.3266 H         1 <0>         0.0823
     47 H10        -4.7476    0.7208    1.7836 H         1 <0>         0.4152
     48 H11        -3.4015    2.3069    3.6938 H         1 <0>         0.0840
     49 H12        -3.9122    3.3583    2.3514 H         1 <0>         0.0859
     50 H13        -6.2684    3.7156    1.8800 H         1 <0>         0.1333
     51 H14        -8.5546    3.7726    2.7908 H         1 <0>         0.1366
     52 H15        -9.0866    2.5512    4.8614 H         1 <0>         0.1374
     53 H16        -5.0428    1.2045    5.1017 H         1 <0>         0.1384
     54 H17        -5.0407   -3.3682    0.2797 H         1 <0>         0.1338
     55 H18        -6.3226   -5.1599   -0.8147 H         1 <0>         0.1363
     56 H19        -4.3186   -4.3604   -4.4993 H         1 <0>         0.1392
     57 H20        -3.0375   -2.5589   -3.4200 H         1 <0>         0.1349
     58 H21        -1.3941   -2.6374   -2.7645 H         1 <0>         0.0942
     59 H22        -0.0338   -1.6858   -2.1225 H         1 <0>         0.0914
     60 H23         0.1089   -3.2185   -0.1722 H         1 <0>         0.0696
     61 H24        -1.2382   -4.1763   -0.8326 H         1 <0>         0.0769
     62 H25         1.5422   -5.3706   -0.3258 H         1 <0>         0.0616
     63 H26         0.0960   -6.1796   -0.9756 H         1 <0>         0.0744
     64 H27         2.7663   -7.6389   -0.5832 H         1 <0>         0.0557
     65 H28         1.2354   -8.2910   -1.2153 H         1 <0>         0.0609
     66 H29         3.6179   -5.5849   -1.6001 H         1 <0>         0.3494
     67 H30         2.2308   -3.2775   -1.3856 H         1 <0>         0.3628
@<TRIPOS>BOND
     1    1    2 1
     2    1   40 1
     3    1   41 1
     4    1   42 1
     5    2    3 1
     6    2    4 1
     7    2   43 1
     8    3   44 1
     9    3   45 1
    10    3   46 1
    11    4    8 1
    12    4    5 1
    13    5    6 2
    14    5   27 1
    15    6    7 1
    16    6   20 1
    17    7    8 2
    18    8    9 1
    19    9   10 2
    20    9   11 am
    21   11   12 1
    22   11   47 1
    23   12   13 1
    24   12   48 1
    25   12   49 1
    26   13   18 ar
    27   13   14 ar
    28   14   15 ar
    29   14   50 1
    30   15   16 ar
    31   15   51 1
    32   16   17 ar
    33   16   52 1
    34   17   18 ar
    35   17   19 1
    36   18   53 1
    37   20   25 ar
    38   20   21 ar
    39   21   22 ar
    40   21   54 1
    41   22   23 ar
    42   22   55 1
    43   23   24 ar
    44   23   26 1
    45   24   25 ar
    46   24   56 1
    47   25   57 1
    48   27   28 1
    49   27   58 1
    50   27   59 1
    51   28   29 1
    52   28   60 1
    53   28   61 1
    54   29   30 1
    55   29   31 1
    56   29   39 1
    57   31   32 1
    58   31   62 1
    59   31   63 1
    60   32   33 1
    61   32   34 1
    62   32   38 1
    63   34   35 1
    64   34   64 1
    65   34   65 1
    66   35   36 2
    67   35   37 1
    68   38   66 1
    69   39   67 1
@<TRIPOS>MOLECULE
CHEMBL341284
   64    67     0     0     0
SMALL
USER_CHARGES

@<TRIPOS>ATOM
      1 C1          2.4229    1.7733   -2.0293 C.3       1 <0>        -0.1277
      2 C2          1.9427    0.4203   -1.5711 C.ar      1 <0>        -0.0184
      3 C3          1.5508   -0.5252   -2.5003 C.ar      1 <0>        -0.1410
      4 C4          1.1104   -1.7662   -2.0801 C.ar      1 <0>        -0.0088
      5 C5          1.0622   -2.0620   -0.7306 C.ar      1 <0>        -0.6818
      6 C6          1.4549   -1.1169    0.1986 C.ar      1 <0>        -0.0062
      7 C7          1.8995    0.1227   -0.2219 C.ar      1 <0>        -0.1411
      8 S1          0.4996   -3.6435   -0.1948 S.o2      1 <0>         2.6871
      9 O1          0.0335   -3.4789    1.1374 O.2       1 <0>        -0.9140
     10 O2         -0.3254   -4.1542   -1.2330 O.2       1 <0>        -0.9215
     11 N1          1.8251   -4.6329   -0.1136 N.pl3     1 <0>        -0.7339
     12 C8          2.3809   -5.3188   -1.1519 C.2       1 <0>         0.1415
     13 C9          3.4510   -6.0092   -0.6570 C.2       1 <0>        -0.1680
     14 C10         3.5430   -5.7346    0.7077 C.2       1 <0>         0.1270
     15 N2          2.5797   -4.9104    1.0334 N.2       1 <0>        -0.2374
     16 C11         4.5820   -6.2887    1.6482 C.3       1 <0>        -0.0231
     17 C12         5.3771   -5.1366    2.2657 C.3       1 <0>        -0.1446
     18 C13         3.8925   -7.0849    2.7579 C.3       1 <0>        -0.1475
     19 C14         4.3684   -6.9083   -1.4450 C.3       1 <0>        -0.0520
     20 C15         5.6051   -6.1197   -1.8804 C.3       1 <0>        -0.1114
     21 C16         6.5887   -7.0593   -2.5808 C.3       1 <0>         0.1097
     22 H1          6.0847   -7.5659   -3.4039 H         1 <0>         0.0878
     23 C17         7.7692   -6.2504   -3.1248 C.3       1 <0>        -0.1536
     24 C18         8.7720   -7.1994   -3.7890 C.3       1 <0>         0.1042
     25 H2          9.6203   -6.6284   -4.1663 H         1 <0>         0.0793
     26 C19         9.2586   -8.2150   -2.7473 C.3       1 <0>        -0.2051
     27 C20         8.0467   -8.8455   -2.0968 C.2       1 <0>         0.4964
     28 O3          7.9549  -10.0450   -1.9849 O.2       1 <0>        -0.4515
     29 O4          7.0709   -8.0303   -1.6454 O.3       1 <0>        -0.3665
     30 O5          8.1378   -7.8855   -4.8702 O.3       1 <0>        -0.5635
     31 C21         1.9119   -5.3166   -2.5554 C.ar      1 <0>        -0.0895
     32 C22         2.7448   -4.8458   -3.5708 C.ar      1 <0>        -0.0540
     33 C23         2.3030   -4.8463   -4.8776 C.ar      1 <0>        -0.1633
     34 C24         1.0343   -5.3128   -5.1824 C.ar      1 <0>         0.1236
     35 C25         0.2031   -5.7810   -4.1774 C.ar      1 <0>        -0.1551
     36 C26         0.6377   -5.7905   -2.8683 C.ar      1 <0>        -0.0162
     37 F1          0.6062   -5.3107   -6.4638 F         1 <0>        -0.1338
     38 H3          3.5009    1.7417   -2.1878 H         1 <0>         0.0821
     39 H4          1.9260    2.0383   -2.9626 H         1 <0>         0.0755
     40 H5          2.1892    2.5184   -1.2689 H         1 <0>         0.0755
     41 H6          1.5885   -0.2941   -3.5547 H         1 <0>         0.1364
     42 H7          0.8035   -2.5046   -2.8060 H         1 <0>         0.1396
     43 H8          1.4170   -1.3478    1.2529 H         1 <0>         0.1434
     44 H9          2.2098    0.8598    0.5039 H         1 <0>         0.1373
     45 H10         5.2582   -6.9430    1.0979 H         1 <0>         0.0992
     46 H11         4.7009   -4.4823    2.8160 H         1 <0>         0.0634
     47 H12         6.1286   -5.5374    2.9460 H         1 <0>         0.0664
     48 H13         5.8683   -4.5693    1.4751 H         1 <0>         0.0560
     49 H14         3.3260   -7.9057    2.3180 H         1 <0>         0.0581
     50 H15         4.6439   -7.4857    3.4382 H         1 <0>         0.0667
     51 H16         3.2163   -6.4307    3.3082 H         1 <0>         0.0640
     52 H17         4.6744   -7.7499   -0.8235 H         1 <0>         0.0900
     53 H18         3.8450   -7.2790   -2.3264 H         1 <0>         0.0786
     54 H19         5.3076   -5.3275   -2.5674 H         1 <0>         0.0856
     55 H20         6.0830   -5.6807   -1.0046 H         1 <0>         0.0813
     56 H21         7.4089   -5.5300   -3.8591 H         1 <0>         0.0977
     57 H22         8.2564   -5.7221   -2.3053 H         1 <0>         0.0963
     58 H23         9.8557   -8.9849   -3.2359 H         1 <0>         0.1076
     59 H24         9.8589   -7.7077   -1.9921 H         1 <0>         0.1184
     60 H25         8.7163   -8.5043   -5.3366 H         1 <0>         0.3868
     61 H26         3.7335   -4.4814   -3.3342 H         1 <0>         0.1378
     62 H27         2.9470   -4.4821   -5.6644 H         1 <0>         0.1431
     63 H28        -0.7851   -6.1429   -4.4200 H         1 <0>         0.1437
     64 H29        -0.0091   -6.1601   -2.0863 H         1 <0>         0.1433
@<TRIPOS>BOND
     1    1    2 1
     2    1   38 1
     3    1   39 1
     4    1   40 1
     5    2    7 ar
     6    2    3 ar
     7    3    4 ar
     8    3   41 1
     9    4    5 ar
    10    4   42 1
    11    5    6 ar
    12    5    8 1
    13    6    7 ar
    14    6   43 1
    15    7   44 1
    16    8    9 2
    17    8   10 2
    18    8   11 1
    19   11   15 1
    20   11   12 1
    21   12   13 2
    22   12   31 1
    23   13   14 1
    24   13   19 1
    25   14   15 2
    26   14   16 1
    27   16   17 1
    28   16   18 1
    29   16   45 1
    30   17   46 1
    31   17   47 1
    32   17   48 1
    33   18   49 1
    34   18   50 1
    35   18   51 1
    36   19   20 1
    37   19   52 1
    38   19   53 1
    39   20   21 1
    40   20   54 1
    41   20   55 1
    42   21   22 1
    43   21   29 1
    44   21   23 1
    45   23   24 1
    46   23   56 1
    47   23   57 1
    48   24   25 1
    49   24   26 1
    50   24   30 1
    51   26   27 1
    52   26   58 1
    53   26   59 1
    54   27   28 2
    55   27   29 1
    56   30   60 1
    57   31   36 ar
    58   31   32 ar
    59   32   33 ar
    60   32   61 1
    61   33   34 ar
    62   33   62 1
    63   34   35 ar
    64   34   37 1
    65   35   36 ar
    66   35   63 1
    67   36   64 1
@<TRIPOS>MOLECULE
CHEMBL352558
   77    82     0     0     0
SMALL
USER_CHARGES

@<TRIPOS>ATOM
      1 C1          3.1681   -1.5715   -0.7921 C.3       1 <0>        -0.1417
      2 C2          2.1086   -2.1991    0.1159 C.3       1 <0>        -0.0588
      3 H1          2.4525   -3.1720    0.4670 H         1 <0>         0.0831
      4 C3          0.7917   -2.3605   -0.6560 C.3       1 <0>        -0.1382
      5 C4         -0.2325   -3.0118    0.2711 C.3       1 <0>         0.0991
      6 H2          0.1282   -3.9989    0.5604 H         1 <0>         0.0736
      7 C5         -0.4687   -2.1904    1.5165 C.3       1 <0>        -0.0408
      8 C6         -1.7369   -1.3406    1.4093 C.3       1 <0>        -0.0608
      9 H3         -1.5846   -0.5472    0.6775 H         1 <0>         0.0720
     10 C7         -2.0332   -0.7259    2.7781 C.3       1 <0>        -0.0601
     11 H4         -2.8306    0.0097    2.6726 H         1 <0>         0.0819
     12 C8         -0.8241   -0.0567    3.3572 C.2       1 <0>        -0.1390
     13 C9          0.4158   -0.3049    2.9725 C.2       1 <0>        -0.1237
     14 C10         0.6685   -1.2878    1.8934 C.2       1 <0>        -0.0874
     15 C11         1.8447   -1.2957    1.2927 C.2       1 <0>        -0.1376
     16 C12        -2.4956   -1.8297    3.7314 C.3       1 <0>        -0.1609
     17 C13        -2.9097   -2.2217    0.9742 C.3       1 <0>        -0.1169
     18 C14        -4.2228   -1.5897    1.4404 C.3       1 <0>        -0.1431
     19 C15        -5.3715   -2.5746    1.2137 C.3       1 <0>         0.1055
     20 C16        -6.6781   -1.9624    1.7254 C.3       1 <0>        -0.1543
     21 C17        -7.8186   -2.9674    1.5347 C.3       1 <0>         0.1054
     22 H5         -8.7485   -2.5399    1.9097 H         1 <0>         0.0769
     23 C18        -7.4889   -4.2458    2.3158 C.3       1 <0>        -0.2067
     24 C19        -6.1018   -4.7008    1.9181 C.2       1 <0>         0.4946
     25 O1         -5.8904   -5.8481    1.6034 O.2       1 <0>        -0.4491
     26 O2         -5.1077   -3.7888    1.9254 O.3       1 <0>        -0.3638
     27 O3         -7.9587   -3.2747    0.1462 O.3       1 <0>        -0.5592
     28 O4         -1.4691   -3.1562   -0.4303 O.3       1 <0>        -0.3187
     29 C20        -1.5128   -4.0780   -1.4050 C.2       1 <0>         0.4573
     30 O5         -0.5048   -4.6569   -1.7347 O.2       1 <0>        -0.5023
     31 C21        -2.8192   -4.3911   -2.0880 C.3       1 <0>        -0.0412
     32 C22        -3.6384   -5.3403   -1.2113 C.3       1 <0>        -0.0972
     33 C23        -4.9647   -5.6582   -1.9047 C.3       1 <0>        -0.0797
     34 C24        -4.6879   -6.3222   -3.2550 C.3       1 <0>        -0.1111
     35 C25        -3.8687   -5.3729   -4.1317 C.3       1 <0>        -0.0839
     36 C26        -2.5424   -5.0551   -3.4383 C.3       1 <0>        -0.0933
     37 C27        -4.6525   -4.0775   -4.3516 C.3       1 <0>        -0.1105
     38 C28        -4.9293   -3.4135   -3.0012 C.3       1 <0>        -0.0832
     39 C29        -5.7485   -4.3627   -2.1245 C.3       1 <0>        -0.1079
     40 C30        -3.6030   -3.0956   -2.3078 C.3       1 <0>        -0.1102
     41 H6          4.0962   -1.4460   -0.2345 H         1 <0>         0.0585
     42 H7          3.3440   -2.2222   -1.6487 H         1 <0>         0.0584
     43 H8          2.8188   -0.5994   -1.1400 H         1 <0>         0.0566
     44 H9          0.4299   -1.3826   -0.9736 H         1 <0>         0.0722
     45 H10         0.9526   -2.9941   -1.5282 H         1 <0>         0.0841
     46 H11        -0.6263   -2.8828    2.3434 H         1 <0>         0.0850
     47 H12        -0.9752    0.6745    4.1375 H         1 <0>         0.1060
     48 H13         1.2420    0.2074    3.4431 H         1 <0>         0.1177
     49 H14         2.6291   -0.6445    1.6494 H         1 <0>         0.1151
     50 H15        -1.7101   -2.5793    3.8278 H         1 <0>         0.0556
     51 H16        -2.7088   -1.3990    4.7098 H         1 <0>         0.0525
     52 H17        -3.3974   -2.2971    3.3359 H         1 <0>         0.0829
     53 H18        -2.9145   -2.3097   -0.1123 H         1 <0>         0.1064
     54 H19        -2.8049   -3.2115    1.4185 H         1 <0>         0.0735
     55 H20        -4.1539   -1.3498    2.5014 H         1 <0>         0.0951
     56 H21        -4.4087   -0.6778    0.8730 H         1 <0>         0.0825
     57 H22        -5.4620   -2.7893    0.1489 H         1 <0>         0.0891
     58 H23        -6.5775   -1.7231    2.7840 H         1 <0>         0.0938
     59 H24        -6.8974   -1.0531    1.1658 H         1 <0>         0.0968
     60 H25        -7.5154   -4.0397    3.3858 H         1 <0>         0.1156
     61 H26        -8.2142   -5.0223    2.0726 H         1 <0>         0.1059
     62 H27        -8.6645   -3.9068   -0.0475 H         1 <0>         0.3846
     63 H28        -3.0800   -6.2632   -1.0547 H         1 <0>         0.0651
     64 H29        -3.8356   -4.8673   -0.2493 H         1 <0>         0.0769
     65 H30        -5.5483   -6.3344   -1.2801 H         1 <0>         0.0762
     66 H31        -4.1295   -7.2451   -3.0984 H         1 <0>         0.0624
     67 H32        -5.6328   -6.5486   -3.7490 H         1 <0>         0.0644
     68 H33        -3.6715   -5.8460   -5.0937 H         1 <0>         0.0748
     69 H34        -1.9588   -4.3788   -4.0629 H         1 <0>         0.0663
     70 H35        -1.9840   -5.9780   -3.2817 H         1 <0>         0.0740
     71 H36        -4.0689   -3.4012   -4.9762 H         1 <0>         0.0621
     72 H37        -5.5974   -4.3039   -4.8456 H         1 <0>         0.0648
     73 H38        -5.4877   -2.4905   -3.1578 H         1 <0>         0.0745
     74 H39        -6.6934   -4.5891   -2.6185 H         1 <0>         0.0626
     75 H40        -5.9457   -3.8897   -1.1625 H         1 <0>         0.0714
     76 H41        -3.8002   -2.6226   -1.3458 H         1 <0>         0.0821
     77 H42        -3.0194   -2.4194   -2.9324 H         1 <0>         0.0664
@<TRIPOS>BOND
     1    1    2 1
     2    1   41 1
     3    1   42 1
     4    1   43 1
     5    2    3 1
     6    2   15 1
     7    2    4 1
     8    4    5 1
     9    4   44 1
    10    4   45 1
    11    5    6 1
    12    5    7 1
    13    5   28 1
    14    7   14 1
    15    7    8 1
    16    7   46 1
    17    8    9 1
    18    8   10 1
    19    8   17 1
    20   10   11 1
    21   10   12 1
    22   10   16 1
    23   12   13 2
    24   12   47 1
    25   13   14 1
    26   13   48 1
    27   14   15 2
    28   15   49 1
    29   16   50 1
    30   16   51 1
    31   16   52 1
    32   17   18 1
    33   17   53 1
    34   17   54 1
    35   18   19 1
    36   18   55 1
    37   18   56 1
    38   19   26 1
    39   19   20 1
    40   19   57 1
    41   20   21 1
    42   20   58 1
    43   20   59 1
    44   21   22 1
    45   21   23 1
    46   21   27 1
    47   23   24 1
    48   23   60 1
    49   23   61 1
    50   24   25 2
    51   24   26 1
    52   27   62 1
    53   28   29 1
    54   29   30 2
    55   29   31 1
    56   31   36 1
    57   31   40 1
    58   31   32 1
    59   32   33 1
    60   32   63 1
    61   32   64 1
    62   33   39 1
    63   33   34 1
    64   33   65 1
    65   34   35 1
    66   34   66 1
    67   34   67 1
    68   35   36 1
    69   35   37 1
    70   35   68 1
    71   36   69 1
    72   36   70 1
    73   37   38 1
    74   37   71 1
    75   37   72 1
    76   38   39 1
    77   38   40 1
    78   38   73 1
    79   39   74 1
    80   39   75 1
    81   40   76 1
    82   40   77 1
@<TRIPOS>MOLECULE
CHEMBL352558__1
   77    82     0     0     0
SMALL
USER_CHARGES

@<TRIPOS>ATOM
      1 C1          1.6703   -0.8209   -2.7858 C.3       1 <0>        -0.1415
      2 C2          1.5871   -1.9415   -1.7474 C.3       1 <0>        -0.0556
      3 H1          2.0946   -2.8304   -2.1220 H         1 <0>         0.0784
      4 C3          0.1169   -2.2680   -1.4512 C.3       1 <0>        -0.1805
      5 C4          0.0725   -3.4052   -0.4327 C.3       1 <0>         0.1057
      6 H2          0.5478   -4.2863   -0.8639 H         1 <0>         0.1028
      7 C5          0.7826   -3.0418    0.8499 C.3       1 <0>        -0.0617
      8 C6         -0.1958   -2.5963    1.9391 C.3       1 <0>        -0.0683
      9 H3         -0.6246   -1.6303    1.6724 H         1 <0>         0.0798
     10 C7          0.5639   -2.4730    3.2608 C.3       1 <0>        -0.0570
     11 H4         -0.0818   -1.9974    3.9991 H         1 <0>         0.0788
     12 C8          1.8127   -1.6594    3.1071 C.2       1 <0>        -0.1374
     13 C9          2.4102   -1.4303    1.9505 C.2       1 <0>        -0.1258
     14 C10         1.8329   -1.9811    0.7025 C.2       1 <0>        -0.0841
     15 C11         2.2276   -1.4926   -0.4594 C.2       1 <0>        -0.1406
     16 C12         0.9389   -3.8721    3.7535 C.3       1 <0>        -0.1545
     17 C13        -1.3129   -3.6322    2.0803 C.3       1 <0>        -0.1153
     18 C14        -0.7426   -5.0324    1.8460 C.3       1 <0>        -0.1311
     19 C15        -1.8252   -6.0772    2.1239 C.3       1 <0>         0.1094
     20 C16        -1.2805   -7.4734    1.8111 C.3       1 <0>        -0.1550
     21 C17        -2.3530   -8.5200    2.1298 C.3       1 <0>         0.1094
     22 H5         -3.2366   -8.3350    1.5190 H         1 <0>         0.0661
     23 C18        -2.7234   -8.4143    3.6147 C.3       1 <0>        -0.2058
     24 C19        -3.0634   -6.9714    3.9176 C.2       1 <0>         0.4909
     25 O1         -4.0740   -6.6831    4.5138 O.2       1 <0>        -0.4495
     26 O2         -2.2058   -6.0162    3.5030 O.3       1 <0>        -0.3631
     27 O3         -1.8444   -9.8263    1.8526 O.3       1 <0>        -0.5556
     28 O4         -1.2916   -3.7112   -0.1366 O.3       1 <0>        -0.3413
     29 C20        -2.2004   -2.7584   -0.3974 C.2       1 <0>         0.4713
     30 O5         -1.8859   -1.5930   -0.3449 O.2       1 <0>        -0.4750
     31 C21        -3.6129   -3.1423   -0.7557 C.3       1 <0>        -0.0513
     32 C22        -3.5912   -4.1496   -1.9071 C.3       1 <0>        -0.1003
     33 C23        -5.0253   -4.5393   -2.2709 C.3       1 <0>        -0.0836
     34 C24        -5.7998   -3.2914   -2.6996 C.3       1 <0>        -0.1113
     35 C25        -5.8215   -2.2841   -1.5482 C.3       1 <0>        -0.0851
     36 C26        -4.3874   -1.8944   -1.1844 C.3       1 <0>        -0.0927
     37 C27        -6.5029   -2.9144   -0.3319 C.3       1 <0>        -0.1112
     38 C28        -5.7284   -4.1623    0.0967 C.3       1 <0>        -0.0846
     39 C29        -5.7067   -5.1696   -1.0547 C.3       1 <0>        -0.1095
     40 C30        -4.2943   -3.7726    0.4606 C.3       1 <0>        -0.1032
     41 H6          2.7161   -0.5835   -2.9811 H         1 <0>         0.0578
     42 H7          1.1927   -1.1459   -3.7101 H         1 <0>         0.0560
     43 H8          1.1615    0.0650   -2.4059 H         1 <0>         0.0579
     44 H9         -0.3793   -1.3883   -1.0412 H         1 <0>         0.1326
     45 H10        -0.3827   -2.5775   -2.3692 H         1 <0>         0.0658
     46 H11         1.2740   -3.9412    1.2211 H         1 <0>         0.0866
     47 H12         2.2519   -1.2331    3.9969 H         1 <0>         0.1059
     48 H13         3.3160   -0.8433    1.9156 H         1 <0>         0.1170
     49 H14         3.0206   -0.7599   -0.4871 H         1 <0>         0.1132
     50 H15         1.5617   -4.3653    3.0072 H         1 <0>         0.0580
     51 H16         1.4896   -3.7918    4.6907 H         1 <0>         0.0528
     52 H17         0.0325   -4.4560    3.9136 H         1 <0>         0.0784
     53 H18        -1.7363   -3.5755    3.0831 H         1 <0>         0.0613
     54 H19        -2.0916   -3.4293    1.3451 H         1 <0>         0.0834
     55 H20        -0.4094   -5.1207    0.8119 H         1 <0>         0.0995
     56 H21         0.1019   -5.1975    2.5151 H         1 <0>         0.0944
     57 H22        -2.6942   -5.8762    1.4973 H         1 <0>         0.0785
     58 H23        -1.0168   -7.5328    0.7552 H         1 <0>         0.0978
     59 H24        -0.3955   -7.6630    2.4186 H         1 <0>         0.0897
     60 H25        -3.5860   -9.0469    3.8241 H         1 <0>         0.1058
     61 H26        -1.8787   -8.7293    4.2274 H         1 <0>         0.1169
     62 H27        -2.4725  -10.5393    2.0322 H         1 <0>         0.3847
     63 H28        -3.1058   -3.7006   -2.7736 H         1 <0>         0.0663
     64 H29        -3.0395   -5.0387   -1.6017 H         1 <0>         0.0757
     65 H30        -5.0098   -5.2570   -3.0912 H         1 <0>         0.0761
     66 H31        -5.3144   -2.8423   -3.5661 H         1 <0>         0.0634
     67 H32        -6.8215   -3.5690   -2.9588 H         1 <0>         0.0659
     68 H33        -6.3732   -1.3950   -1.8536 H         1 <0>         0.0764
     69 H34        -4.4029   -1.1767   -0.3641 H         1 <0>         0.0734
     70 H35        -3.9020   -1.4453   -2.0509 H         1 <0>         0.0692
     71 H36        -6.5183   -2.1967    0.4883 H         1 <0>         0.0645
     72 H37        -7.5245   -3.1920   -0.5911 H         1 <0>         0.0662
     73 H38        -6.2138   -4.6114    0.9633 H         1 <0>         0.0762
     74 H39        -6.7284   -5.4473   -1.3138 H         1 <0>         0.0664
     75 H40        -5.1549   -6.0587   -0.7492 H         1 <0>         0.0623
     76 H41        -3.7425   -4.6616    0.7660 H         1 <0>         0.0728
     77 H42        -4.3098   -3.0550    1.2808 H         1 <0>         0.0704
@<TRIPOS>BOND
     1    1    2 1
     2    1   41 1
     3    1   42 1
     4    1   43 1
     5    2    3 1
     6    2   15 1
     7    2    4 1
     8    4    5 1
     9    4   44 1
    10    4   45 1
    11    5    6 1
    12    5    7 1
    13    5   28 1
    14    7   14 1
    15    7    8 1
    16    7   46 1
    17    8    9 1
    18    8   10 1
    19    8   17 1
    20   10   11 1
    21   10   12 1
    22   10   16 1
    23   12   13 2
    24   12   47 1
    25   13   14 1
    26   13   48 1
    27   14   15 2
    28   15   49 1
    29   16   50 1
    30   16   51 1
    31   16   52 1
    32   17   18 1
    33   17   53 1
    34   17   54 1
    35   18   19 1
    36   18   55 1
    37   18   56 1
    38   19   26 1
    39   19   20 1
    40   19   57 1
    41   20   21 1
    42   20   58 1
    43   20   59 1
    44   21   22 1
    45   21   23 1
    46   21   27 1
    47   23   24 1
    48   23   60 1
    49   23   61 1
    50   24   25 2
    51   24   26 1
    52   27   62 1
    53   28   29 1
    54   29   30 2
    55   29   31 1
    56   31   36 1
    57   31   40 1
    58   31   32 1
    59   32   33 1
    60   32   63 1
    61   32   64 1
    62   33   39 1
    63   33   34 1
    64   33   65 1
    65   34   35 1
    66   34   66 1
    67   34   67 1
    68   35   36 1
    69   35   37 1
    70   35   68 1
    71   36   69 1
    72   36   70 1
    73   37   38 1
    74   37   71 1
    75   37   72 1
    76   38   39 1
    77   38   40 1
    78   38   73 1
    79   39   74 1
    80   39   75 1
    81   40   76 1
    82   40   77 1
@<TRIPOS>MOLECULE
CHEMBL352558__2
   77    82     0     0     0
SMALL
USER_CHARGES

@<TRIPOS>ATOM
      1 C1         -0.4086    1.5714   -0.0807 C.3       1 <0>        -0.1369
      2 C2         -0.3165    0.0442   -0.0874 C.3       1 <0>        -0.0560
      3 H1          0.0650   -0.2985   -1.0492 H         1 <0>         0.0772
      4 C3         -1.7035   -0.5617    0.1678 C.3       1 <0>        -0.1357
      5 C4         -2.2173   -0.0395    1.5079 C.3       1 <0>         0.1004
      6 H2         -3.1990   -0.4708    1.7038 H         1 <0>         0.0852
      7 C5         -1.2887   -0.3945    2.6451 C.3       1 <0>        -0.0432
      8 C6         -1.7750   -1.6220    3.4190 C.3       1 <0>        -0.0730
      9 H3         -2.8202   -1.4879    3.6977 H         1 <0>         0.0796
     10 C7         -0.9236   -1.7762    4.6802 C.3       1 <0>        -0.0573
     11 H4         -1.1725   -0.9762    5.3774 H         1 <0>         0.0828
     12 C8          0.5409   -1.7159    4.3694 C.2       1 <0>        -0.1389
     13 C9          1.0431   -1.1924    3.2645 C.2       1 <0>        -0.1268
     14 C10         0.1348   -0.6330    2.2368 C.2       1 <0>        -0.0684
     15 C11         0.5978   -0.4170    1.0181 C.2       1 <0>        -0.1460
     16 C12        -1.2387   -3.1234    5.3335 C.3       1 <0>        -0.1504
     17 C13        -1.6331   -2.8693    2.5444 C.3       1 <0>        -0.1167
     18 C14        -0.1500   -3.1959    2.3586 C.3       1 <0>        -0.1566
     19 C15        -0.0098   -4.5190    1.6031 C.3       1 <0>         0.1072
     20 C16         1.4690   -4.9067    1.5215 C.3       1 <0>        -0.1507
     21 C17         1.6091   -6.2103    0.7288 C.3       1 <0>         0.1039
     22 H5          2.6621   -6.4829    0.6575 H         1 <0>         0.0778
     23 C18         1.0366   -5.9989   -0.6786 C.3       1 <0>        -0.2051
     24 C19        -0.3574   -5.4265   -0.5430 C.2       1 <0>         0.4946
     25 O1         -1.2860   -5.9007   -1.1534 O.2       1 <0>        -0.4554
     26 O2         -0.5336   -4.3710    0.2787 O.3       1 <0>        -0.3651
     27 O3          0.8885   -7.2523    1.3898 O.3       1 <0>        -0.5635
     28 O4         -2.3404    1.3824    1.4367 O.3       1 <0>        -0.3338
     29 C20        -3.5187    1.8720    1.0202 C.2       1 <0>         0.4649
     30 O5         -4.4160    1.1182    0.7258 O.2       1 <0>        -0.5040
     31 C21        -3.7226    3.3617    0.9196 C.3       1 <0>        -0.0401
     32 C22        -3.5241    3.9977    2.2970 C.3       1 <0>        -0.1005
     33 C23        -3.7311    5.5102    2.1949 C.3       1 <0>        -0.0837
     34 C24        -5.1497    5.7986    1.6996 C.3       1 <0>        -0.1116
     35 C25        -5.3481    5.1626    0.3223 C.3       1 <0>        -0.0851
     36 C26        -5.1412    3.6501    0.4243 C.3       1 <0>        -0.0931
     37 C27        -4.3349    5.7508   -0.6618 C.3       1 <0>        -0.1118
     38 C28        -2.9163    5.4624   -0.1665 C.3       1 <0>        -0.0839
     39 C29        -2.7179    6.0984    1.2109 C.3       1 <0>        -0.1099
     40 C30        -2.7093    3.9499   -0.0644 C.3       1 <0>        -0.1040
     41 H6          0.4424    1.9891   -0.6187 H         1 <0>         0.0469
     42 H7         -1.3336    1.8817   -0.5668 H         1 <0>         0.0542
     43 H8         -0.4004    1.9314    0.9481 H         1 <0>         0.0717
     44 H9         -2.3862   -0.2643   -0.6283 H         1 <0>         0.0695
     45 H10        -1.6290   -1.6486    0.2014 H         1 <0>         0.0924
     46 H11        -1.2936    0.4390    3.3474 H         1 <0>         0.0895
     47 H12         1.2294   -2.1262    5.0934 H         1 <0>         0.1113
     48 H13         2.1120   -1.1726    3.1116 H         1 <0>         0.1213
     49 H14         1.6460   -0.5736    0.8104 H         1 <0>         0.1127
     50 H15        -0.9255   -3.9305    4.6712 H         1 <0>         0.0628
     51 H16        -0.7040   -3.2020    6.2801 H         1 <0>         0.0571
     52 H17        -2.3110   -3.1974    5.5147 H         1 <0>         0.0590
     53 H18        -2.1326   -3.7098    3.0264 H         1 <0>         0.0652
     54 H19        -2.0892   -2.6849    1.5717 H         1 <0>         0.0734
     55 H20         0.3288   -2.3996    1.7887 H         1 <0>         0.1136
     56 H21         0.3281   -3.2822    3.3344 H         1 <0>         0.1055
     57 H22        -0.5625   -5.2981    2.1281 H         1 <0>         0.0779
     58 H23         2.0255   -4.1147    1.0203 H         1 <0>         0.0940
     59 H24         1.8639   -5.0486    2.5275 H         1 <0>         0.0953
     60 H25         1.6676   -5.3027   -1.2312 H         1 <0>         0.1172
     61 H26         0.9927   -6.9526   -1.2045 H         1 <0>         0.1062
     62 H27         0.9343   -8.1078    0.9414 H         1 <0>         0.3856
     63 H28        -4.2460    3.5787    2.9980 H         1 <0>         0.0662
     64 H29        -2.5135    3.7923    2.6499 H         1 <0>         0.0764
     65 H30        -3.5897    5.9633    3.1762 H         1 <0>         0.0762
     66 H31        -5.8715    5.3796    2.4007 H         1 <0>         0.0635
     67 H32        -5.2971    6.8761    1.6269 H         1 <0>         0.0661
     68 H33        -6.3587    5.3681   -0.0306 H         1 <0>         0.0763
     69 H34        -5.2825    3.1970   -0.5569 H         1 <0>         0.0709
     70 H35        -5.8630    3.2311    1.1254 H         1 <0>         0.0707
     71 H36        -4.4762    5.2977   -1.6430 H         1 <0>         0.0636
     72 H37        -4.4823    6.8283   -0.7345 H         1 <0>         0.0660
     73 H38        -2.1945    5.8814   -0.8675 H         1 <0>         0.0764
     74 H39        -2.8653    7.1759    1.1382 H         1 <0>         0.0658
     75 H40        -1.7072    5.8929    1.5638 H         1 <0>         0.0651
     76 H41        -1.6987    3.7444    0.2885 H         1 <0>         0.0813
     77 H42        -2.8507    3.4968   -1.0457 H         1 <0>         0.0665
@<TRIPOS>BOND
     1    1    2 1
     2    1   41 1
     3    1   42 1
     4    1   43 1
     5    2    3 1
     6    2   15 1
     7    2    4 1
     8    4    5 1
     9    4   44 1
    10    4   45 1
    11    5    6 1
    12    5    7 1
    13    5   28 1
    14    7   14 1
    15    7    8 1
    16    7   46 1
    17    8    9 1
    18    8   10 1
    19    8   17 1
    20   10   11 1
    21   10   12 1
    22   10   16 1
    23   12   13 2
    24   12   47 1
    25   13   14 1
    26   13   48 1
    27   14   15 2
    28   15   49 1
    29   16   50 1
    30   16   51 1
    31   16   52 1
    32   17   18 1
    33   17   53 1
    34   17   54 1
    35   18   19 1
    36   18   55 1
    37   18   56 1
    38   19   26 1
    39   19   20 1
    40   19   57 1
    41   20   21 1
    42   20   58 1
    43   20   59 1
    44   21   22 1
    45   21   23 1
    46   21   27 1
    47   23   24 1
    48   23   60 1
    49   23   61 1
    50   24   25 2
    51   24   26 1
    52   27   62 1
    53   28   29 1
    54   29   30 2
    55   29   31 1
    56   31   36 1
    57   31   40 1
    58   31   32 1
    59   32   33 1
    60   32   63 1
    61   32   64 1
    62   33   39 1
    63   33   34 1
    64   33   65 1
    65   34   35 1
    66   34   66 1
    67   34   67 1
    68   35   36 1
    69   35   37 1
    70   35   68 1
    71   36   69 1
    72   36   70 1
    73   37   38 1
    74   37   71 1
    75   37   72 1
    76   38   39 1
    77   38   40 1
    78   38   73 1
    79   39   74 1
    80   39   75 1
    81   40   76 1
    82   40   77 1
@<TRIPOS>MOLECULE
CHEMBL352558__3
   77    82     0     0     0
SMALL
USER_CHARGES

@<TRIPOS>ATOM
      1 C1         -0.4104    1.5704   -0.0827 C.3       1 <0>        -0.1375
      2 C2         -0.3179    0.0432   -0.0887 C.3       1 <0>        -0.0571
      3 H1          0.0634   -0.2998   -1.0505 H         1 <0>         0.0785
      4 C3         -1.7048   -0.5628    0.1670 C.3       1 <0>        -0.1349
      5 C4         -2.2183   -0.0402    1.5070 C.3       1 <0>         0.0997
      6 H2         -3.1999   -0.4716    1.7034 H         1 <0>         0.0863
      7 C5         -1.2893   -0.3944    2.6441 C.3       1 <0>        -0.0458
      8 C6         -1.7752   -1.6217    3.4187 C.3       1 <0>        -0.0716
      9 H3         -2.8204   -1.4878    3.6976 H         1 <0>         0.0805
     10 C7         -0.9234   -1.7752    4.6797 C.3       1 <0>        -0.0573
     11 H4         -1.1723   -0.9749    5.3767 H         1 <0>         0.0826
     12 C8          0.5410   -1.7147    4.3686 C.2       1 <0>        -0.1303
     13 C9          1.0428   -1.1915    3.2634 C.2       1 <0>        -0.1350
     14 C10         0.1341   -0.6328    2.2356 C.2       1 <0>        -0.0653
     15 C11         0.5968   -0.4172    1.0167 C.2       1 <0>        -0.1533
     16 C12        -1.2380   -3.1221    5.3338 C.3       1 <0>        -0.1527
     17 C13        -1.6332   -2.8694    2.5446 C.3       1 <0>        -0.1185
     18 C14        -0.1500   -3.1957    2.3587 C.3       1 <0>        -0.1538
     19 C15        -0.0097   -4.5188    1.6032 C.3       1 <0>         0.1055
     20 C16         1.4692   -4.7865    1.3115 C.3       1 <0>        -0.1517
     21 C17         1.6094   -6.1317    0.5919 C.3       1 <0>         0.1084
     22 H5          1.0584   -6.1021   -0.3481 H         1 <0>         0.0659
     23 C18         1.0362   -7.2362    1.4889 C.3       1 <0>        -0.2048
     24 C19        -0.3580   -6.8283    1.9122 C.2       1 <0>         0.4905
     25 O1         -1.2868   -7.5947    1.8132 O.2       1 <0>        -0.4506
     26 O2         -0.5342   -5.5842    2.4035 O.3       1 <0>        -0.3637
     27 O3          2.9896   -6.3928    0.3297 O.3       1 <0>        -0.5557
     28 O4         -2.3417    1.3817    1.4352 O.3       1 <0>        -0.3331
     29 C20        -3.5203    1.8708    1.0188 C.2       1 <0>         0.4655
     30 O5         -4.4175    1.1167    0.7250 O.2       1 <0>        -0.5043
     31 C21        -3.7245    3.3604    0.9176 C.3       1 <0>        -0.0403
     32 C22        -3.5259    3.9971    2.2947 C.3       1 <0>        -0.1007
     33 C23        -3.7332    5.5095    2.1920 C.3       1 <0>        -0.0837
     34 C24        -5.1520    5.7973    1.6969 C.3       1 <0>        -0.1118
     35 C25        -5.3506    5.1607    0.3199 C.3       1 <0>        -0.0852
     36 C26        -5.1433    3.6483    0.4225 C.3       1 <0>        -0.0930
     37 C27        -4.3378    5.7486   -0.6647 C.3       1 <0>        -0.1118
     38 C28        -2.9190    5.4608   -0.1696 C.3       1 <0>        -0.0839
     39 C29        -2.7204    6.0974    1.2074 C.3       1 <0>        -0.1101
     40 C30        -2.7117    3.9484   -0.0669 C.3       1 <0>        -0.1038
     41 H6          0.4405    1.9881   -0.6209 H         1 <0>         0.0480
     42 H7         -1.3355    1.8803   -0.5690 H         1 <0>         0.0545
     43 H8         -0.4023    1.9309    0.9459 H         1 <0>         0.0723
     44 H9         -2.3877   -0.2660   -0.6290 H         1 <0>         0.0718
     45 H10        -1.6299   -1.6497    0.2010 H         1 <0>         0.0845
     46 H11        -1.2943    0.4394    3.3461 H         1 <0>         0.0912
     47 H12         1.2297   -2.1245    5.0926 H         1 <0>         0.1114
     48 H13         2.1117   -1.1715    3.1101 H         1 <0>         0.1223
     49 H14         1.6450   -0.5737    0.8088 H         1 <0>         0.1151
     50 H15        -0.9248   -3.9295    4.6718 H         1 <0>         0.0701
     51 H16        -0.7031   -3.2002    6.2803 H         1 <0>         0.0555
     52 H17        -2.3103   -3.1963    5.5152 H         1 <0>         0.0580
     53 H18        -2.1324   -3.7097    3.0271 H         1 <0>         0.0764
     54 H19        -2.0895   -2.6855    1.5720 H         1 <0>         0.0648
     55 H20         0.3285   -2.3994    1.7886 H         1 <0>         0.1220
     56 H21         0.3281   -3.2820    3.3344 H         1 <0>         0.1005
     57 H22        -0.5619   -4.4625    0.6651 H         1 <0>         0.0728
     58 H23         1.8645   -3.9923    0.6783 H         1 <0>         0.0967
     59 H24         2.0252   -4.8157    2.2486 H         1 <0>         0.0897
     60 H25         0.9923   -8.1739    0.9348 H         1 <0>         0.1059
     61 H26         1.6666   -7.3584    2.3697 H         1 <0>         0.1170
     62 H27         3.1520   -7.2305   -0.1253 H         1 <0>         0.3849
     63 H28        -4.2475    3.5782    2.9961 H         1 <0>         0.0664
     64 H29        -2.5152    3.7920    2.6474 H         1 <0>         0.0765
     65 H30        -3.5918    5.9630    3.1730 H         1 <0>         0.0765
     66 H31        -5.8736    5.3785    2.3983 H         1 <0>         0.0636
     67 H32        -5.2997    6.8748    1.6238 H         1 <0>         0.0662
     68 H33        -6.3614    5.3657   -0.0328 H         1 <0>         0.0765
     69 H34        -5.2848    3.1947   -0.5585 H         1 <0>         0.0708
     70 H35        -5.8649    3.2294    1.1240 H         1 <0>         0.0707
     71 H36        -4.4793    5.2951   -1.6457 H         1 <0>         0.0635
     72 H37        -4.4855    6.8261   -0.7378 H         1 <0>         0.0661
     73 H38        -2.1975    5.8797   -0.8710 H         1 <0>         0.0766
     74 H39        -2.8681    7.1749    1.1343 H         1 <0>         0.0659
     75 H40        -1.7096    5.8924    1.5601 H         1 <0>         0.0652
     76 H41        -1.7009    3.7433    0.2858 H         1 <0>         0.0813
     77 H42        -2.8532    3.4949   -1.0479 H         1 <0>         0.0665
@<TRIPOS>BOND
     1    1    2 1
     2    1   41 1
     3    1   42 1
     4    1   43 1
     5    2    3 1
     6    2   15 1
     7    2    4 1
     8    4    5 1
     9    4   44 1
    10    4   45 1
    11    5    6 1
    12    5    7 1
    13    5   28 1
    14    7   14 1
    15    7    8 1
    16    7   46 1
    17    8    9 1
    18    8   10 1
    19    8   17 1
    20   10   11 1
    21   10   12 1
    22   10   16 1
    23   12   13 2
    24   12   47 1
    25   13   14 1
    26   13   48 1
    27   14   15 2
    28   15   49 1
    29   16   50 1
    30   16   51 1
    31   16   52 1
    32   17   18 1
    33   17   53 1
    34   17   54 1
    35   18   19 1
    36   18   55 1
    37   18   56 1
    38   19   26 1
    39   19   20 1
    40   19   57 1
    41   20   21 1
    42   20   58 1
    43   20   59 1
    44   21   22 1
    45   21   23 1
    46   21   27 1
    47   23   24 1
    48   23   60 1
    49   23   61 1
    50   24   25 2
    51   24   26 1
    52   27   62 1
    53   28   29 1
    54   29   30 2
    55   29   31 1
    56   31   36 1
    57   31   40 1
    58   31   32 1
    59   32   33 1
    60   32   63 1
    61   32   64 1
    62   33   39 1
    63   33   34 1
    64   33   65 1
    65   34   35 1
    66   34   66 1
    67   34   67 1
    68   35   36 1
    69   35   37 1
    70   35   68 1
    71   36   69 1
    72   36   70 1
    73   37   38 1
    74   37   71 1
    75   37   72 1
    76   38   39 1
    77   38   40 1
    78   38   73 1
    79   39   74 1
    80   39   75 1
    81   40   76 1
    82   40   77 1
@<TRIPOS>MOLECULE
CHEMBL317142
   70    73     0     0     0
SMALL
USER_CHARGES

@<TRIPOS>ATOM
      1 C1          0.0444    1.6912   -1.2159 C.3       1 <0>        -0.1538
      2 C2          0.1244    0.1788   -0.9989 C.3       1 <0>        -0.0576
      3 C3          1.1411   -0.1253    0.1032 C.3       1 <0>        -0.1570
      4 C4         -1.2295   -0.3425   -0.5911 C.ar      1 <0>        -0.0770
      5 C5         -1.8497    0.1380    0.5740 C.ar      1 <0>        -0.0314
      6 C6         -1.2310    1.1076    1.3822 C.ar      1 <0>        -0.1156
      7 C7         -1.8611    1.5509    2.5040 C.ar      1 <0>        -0.1180
      8 C8         -3.1133    1.0573    2.8660 C.ar      1 <0>        -0.1177
      9 C9         -3.7425    0.1183    2.1078 C.ar      1 <0>        -0.1034
     10 C10        -3.1234   -0.3634    0.9419 C.ar      1 <0>        -0.0526
     11 C11        -3.7440   -1.3327    0.1345 C.ar      1 <0>        -0.0905
     12 C12        -3.1174   -1.7775   -0.9874 C.ar      1 <0>        -0.0821
     13 C13        -1.8630   -1.2806   -1.3552 C.ar      1 <0>         0.1094
     14 O1         -1.2644   -1.7405   -2.4851 O.3       1 <0>        -0.3171
     15 C14        -0.4198   -2.8855   -2.3518 C.3       1 <0>         0.0313
     16 C15         0.1603   -3.2532   -3.7190 C.3       1 <0>         0.1194
     17 C16         0.9635   -4.5500   -3.6001 C.3       1 <0>        -0.1853
     18 C17         1.4389   -4.9844   -4.9880 C.3       1 <0>         0.1402
     19 H1          0.5822   -5.0636   -5.6572 H         1 <0>         0.0947
     20 C18         2.1341   -6.3436   -4.8866 C.3       1 <0>        -0.2192
     21 C19         2.4932   -6.8284   -6.2676 C.2       1 <0>         0.4906
     22 O2          2.2185   -6.1498   -7.2425 O.co2     1 <0>        -0.6803
     23 O3          3.0584   -7.8993   -6.4099 O.co2     1 <0>        -0.7124
     24 O4          2.3567   -4.0170   -5.5016 O.3       1 <0>        -0.5266
     25 O5          1.0165   -2.2024   -4.1714 O.3       1 <0>        -0.5303
     26 C20        -3.7865   -2.8170   -1.8493 C.3       1 <0>         0.0320
     27 C21        -4.1622   -4.0056   -1.0025 C.ar      1 <0>        -0.0867
     28 C22        -5.1989   -4.8323   -1.3937 C.ar      1 <0>        -0.0772
     29 C23        -5.5440   -5.9228   -0.6182 C.ar      1 <0>        -0.1500
     30 C24        -4.8510   -6.1874    0.5510 C.ar      1 <0>         0.0973
     31 C25        -3.8129   -5.3587    0.9417 C.ar      1 <0>        -0.1505
     32 C26        -3.4661   -4.2718    0.1619 C.ar      1 <0>        -0.0817
     33 F1         -5.1878   -7.2530    1.3101 F         1 <0>        -0.1405
     34 C27        -5.0278   -2.2307   -2.4711 C.ar      1 <0>        -0.0803
     35 C28        -6.0968   -1.8710   -1.6717 C.ar      1 <0>        -0.0808
     36 C29        -7.2354   -1.3328   -2.2407 C.ar      1 <0>        -0.1533
     37 C30        -7.3053   -1.1540   -3.6120 C.ar      1 <0>         0.0969
     38 C31        -6.2340   -1.5147   -4.4115 C.ar      1 <0>        -0.1495
     39 C32        -5.0943   -2.0478   -3.8398 C.ar      1 <0>        -0.0756
     40 F2         -8.4181   -0.6285   -4.1693 F         1 <0>        -0.1411
     41 H2          1.0426    2.0838   -1.4096 H         1 <0>         0.0606
     42 H3         -0.6008    1.9023   -2.0687 H         1 <0>         0.0582
     43 H4         -0.3656    2.1650   -0.3240 H         1 <0>         0.0636
     44 H5          0.4362   -0.3051   -1.9245 H         1 <0>         0.0942
     45 H6          0.7824    0.2785    1.0500 H         1 <0>         0.0650
     46 H7          1.2678   -1.2042    0.1931 H         1 <0>         0.0536
     47 H8          2.0975    0.3331   -0.1482 H         1 <0>         0.0620
     48 H9         -0.2605    1.4985    1.1144 H         1 <0>         0.1439
     49 H10        -1.3836    2.2958    3.1232 H         1 <0>         0.1218
     50 H11        -3.5915    1.4254    3.7617 H         1 <0>         0.1212
     51 H12        -4.7125   -0.2551    2.4011 H         1 <0>         0.1251
     52 H13        -4.7143   -1.7227    0.4044 H         1 <0>         0.1308
     53 H14         0.3927   -2.6592   -1.6613 H         1 <0>         0.0558
     54 H15        -1.0013   -3.7231   -1.9666 H         1 <0>         0.0601
     55 H16        -0.6517   -3.3929   -4.4326 H         1 <0>         0.1056
     56 H17         1.8268   -4.3849   -2.9555 H         1 <0>         0.0657
     57 H18         0.3336   -5.3294   -3.1713 H         1 <0>         0.0765
     58 H19         3.0405   -6.2444   -4.2893 H         1 <0>         0.0567
     59 H20         1.4634   -7.0604   -4.4128 H         1 <0>         0.0614
     60 H21         3.1452   -3.8941   -4.9554 H         1 <0>         0.3504
     61 H22         1.7631   -2.0227   -3.5836 H         1 <0>         0.3634
     62 H23        -3.1009   -3.1331   -2.6355 H         1 <0>         0.1118
     63 H24        -5.7396   -4.6255   -2.3055 H         1 <0>         0.1339
     64 H25        -6.3542   -6.5683   -0.9237 H         1 <0>         0.1359
     65 H26        -3.2718   -5.5639    1.8536 H         1 <0>         0.1348
     66 H27        -2.6535   -3.6278    0.4641 H         1 <0>         0.1314
     67 H28        -6.0422   -2.0108   -0.6022 H         1 <0>         0.1306
     68 H29        -8.0706   -1.0522   -1.6161 H         1 <0>         0.1340
     69 H30        -6.2875   -1.3760   -5.4813 H         1 <0>         0.1375
     70 H31        -4.2569   -2.3251   -4.4628 H         1 <0>         0.1383
@<TRIPOS>BOND
     1    1    2 1
     2    1   41 1
     3    1   42 1
     4    1   43 1
     5    2    3 1
     6    2    4 1
     7    2   44 1
     8    3   45 1
     9    3   46 1
    10    3   47 1
    11    4   13 ar
    12    4    5 ar
    13    5   10 ar
    14    5    6 ar
    15    6    7 ar
    16    6   48 1
    17    7    8 ar
    18    7   49 1
    19    8    9 ar
    20    8   50 1
    21    9   10 ar
    22    9   51 1
    23   10   11 ar
    24   11   12 ar
    25   11   52 1
    26   12   13 ar
    27   12   26 1
    28   13   14 1
    29   14   15 1
    30   15   16 1
    31   15   53 1
    32   15   54 1
    33   16   17 1
    34   16   25 1
    35   16   55 1
    36   17   18 1
    37   17   56 1
    38   17   57 1
    39   18   19 1
    40   18   20 1
    41   18   24 1
    42   20   21 1
    43   20   58 1
    44   20   59 1
    45   21   22 2
    46   21   23 1
    47   24   60 1
    48   25   61 1
    49   26   27 1
    50   26   34 1
    51   26   62 1
    52   27   32 ar
    53   27   28 ar
    54   28   29 ar
    55   28   63 1
    56   29   30 ar
    57   29   64 1
    58   30   31 ar
    59   30   33 1
    60   31   32 ar
    61   31   65 1
    62   32   66 1
    63   34   39 ar
    64   34   35 ar
    65   35   36 ar
    66   35   67 1
    67   36   37 ar
    68   36   68 1
    69   37   38 ar
    70   37   40 1
    71   38   39 ar
    72   38   69 1
    73   39   70 1
@<TRIPOS>MOLECULE
CHEMBL317142__1
   70    73     0     0     0
SMALL
USER_CHARGES

@<TRIPOS>ATOM
      1 C1          0.0444    1.6911   -1.2158 C.3       1 <0>        -0.1546
      2 C2          0.1244    0.1787   -0.9988 C.3       1 <0>        -0.0576
      3 C3          1.1411   -0.1254    0.1033 C.3       1 <0>        -0.1571
      4 C4         -1.2295   -0.3425   -0.5910 C.ar      1 <0>        -0.0778
      5 C5         -1.8497    0.1380    0.5740 C.ar      1 <0>        -0.0311
      6 C6         -1.2310    1.1076    1.3822 C.ar      1 <0>        -0.1156
      7 C7         -1.8612    1.5508    2.5040 C.ar      1 <0>        -0.1179
      8 C8         -3.1134    1.0573    2.8660 C.ar      1 <0>        -0.1175
      9 C9         -3.7425    0.1183    2.1078 C.ar      1 <0>        -0.1036
     10 C10        -3.1234   -0.3634    0.9419 C.ar      1 <0>        -0.0525
     11 C11        -3.7440   -1.3327    0.1345 C.ar      1 <0>        -0.0910
     12 C12        -3.1174   -1.7776   -0.9874 C.ar      1 <0>        -0.0814
     13 C13        -1.8630   -1.2806   -1.3552 C.ar      1 <0>         0.1093
     14 O1         -1.2644   -1.7406   -2.4851 O.3       1 <0>        -0.3171
     15 C14        -0.4198   -2.8856   -2.3518 C.3       1 <0>         0.0323
     16 C15         0.1603   -3.2533   -3.7189 C.3       1 <0>         0.1171
     17 C16         1.1604   -4.3998   -3.5569 C.3       1 <0>        -0.1842
     18 C17         1.8322   -4.6844   -4.9017 C.3       1 <0>         0.1378
     19 H1          1.0690   -4.8767   -5.6557 H         1 <0>         0.1041
     20 C18         2.7389   -5.9097   -4.7697 C.3       1 <0>        -0.2185
     21 C19         3.3047   -6.2639   -6.1208 C.2       1 <0>         0.4905
     22 O2          3.0101   -5.5979   -7.0987 O.co2     1 <0>        -0.6799
     23 O3          4.0571   -7.2163   -6.2361 O.co2     1 <0>        -0.7122
     24 O4          2.6136   -3.5536   -5.2926 O.3       1 <0>        -0.5400
     25 O5         -0.8960   -3.6621   -4.5902 O.3       1 <0>        -0.5438
     26 C20        -3.7865   -2.8170   -1.8493 C.3       1 <0>         0.0320
     27 C21        -4.1622   -4.0056   -1.0026 C.ar      1 <0>        -0.0864
     28 C22        -5.1989   -4.8323   -1.3937 C.ar      1 <0>        -0.0773
     29 C23        -5.5441   -5.9229   -0.6182 C.ar      1 <0>        -0.1503
     30 C24        -4.8511   -6.1874    0.5509 C.ar      1 <0>         0.0969
     31 C25        -3.8129   -5.3588    0.9417 C.ar      1 <0>        -0.1505
     32 C26        -3.4662   -4.2718    0.1618 C.ar      1 <0>        -0.0821
     33 F1         -5.1879   -7.2530    1.3100 F         1 <0>        -0.1407
     34 C27        -5.0278   -2.2307   -2.4711 C.ar      1 <0>        -0.0804
     35 C28        -6.0968   -1.8710   -1.6718 C.ar      1 <0>        -0.0815
     36 C29        -7.2354   -1.3328   -2.2408 C.ar      1 <0>        -0.1542
     37 C30        -7.3053   -1.1540   -3.6120 C.ar      1 <0>         0.0965
     38 C31        -6.2340   -1.5147   -4.4116 C.ar      1 <0>        -0.1501
     39 C32        -5.0944   -2.0478   -3.8398 C.ar      1 <0>        -0.0741
     40 F2         -8.4181   -0.6284   -4.1694 F         1 <0>        -0.1415
     41 H2          1.0427    2.0836   -1.4095 H         1 <0>         0.0610
     42 H3         -0.6007    1.9022   -2.0686 H         1 <0>         0.0583
     43 H4         -0.3656    2.1649   -0.3239 H         1 <0>         0.0646
     44 H5          0.4363   -0.3052   -1.9244 H         1 <0>         0.0909
     45 H6          0.7823    0.2785    1.0500 H         1 <0>         0.0655
     46 H7          1.2677   -1.2043    0.1932 H         1 <0>         0.0544
     47 H8          2.0975    0.3330   -0.1481 H         1 <0>         0.0624
     48 H9         -0.2605    1.4984    1.1145 H         1 <0>         0.1440
     49 H10        -1.3837    2.2958    3.1233 H         1 <0>         0.1219
     50 H11        -3.5915    1.4254    3.7617 H         1 <0>         0.1212
     51 H12        -4.7126   -0.2551    2.4010 H         1 <0>         0.1251
     52 H13        -4.7143   -1.7227    0.4044 H         1 <0>         0.1307
     53 H14         0.3927   -2.6593   -1.6613 H         1 <0>         0.0619
     54 H15        -1.0013   -3.7232   -1.9666 H         1 <0>         0.0549
     55 H16         0.6668   -2.3866   -4.1437 H         1 <0>         0.1149
     56 H17         1.9176   -4.1206   -2.8243 H         1 <0>         0.0710
     57 H18         0.6369   -5.2931   -3.2160 H         1 <0>         0.0722
     58 H19         3.5542   -5.6860   -4.0817 H         1 <0>         0.0568
     59 H20         2.1603   -6.7502   -4.3865 H         1 <0>         0.0621
     60 H21         3.3140   -3.3241   -4.6666 H         1 <0>         0.3540
     61 H22        -1.3913   -4.4303   -4.2744 H         1 <0>         0.3664
     62 H23        -3.1009   -3.1332   -2.6355 H         1 <0>         0.1145
     63 H24        -5.7396   -4.6255   -2.3055 H         1 <0>         0.1340
     64 H25        -6.3543   -6.5683   -0.9238 H         1 <0>         0.1357
     65 H26        -3.2719   -5.5640    1.8536 H         1 <0>         0.1347
     66 H27        -2.6535   -3.6279    0.4641 H         1 <0>         0.1313
     67 H28        -6.0422   -2.0109   -0.6022 H         1 <0>         0.1300
     68 H29        -8.0706   -1.0522   -1.6161 H         1 <0>         0.1335
     69 H30        -6.2875   -1.3760   -5.4813 H         1 <0>         0.1372
     70 H31        -4.2569   -2.3251   -4.4628 H         1 <0>         0.1410
@<TRIPOS>BOND
     1    1    2 1
     2    1   41 1
     3    1   42 1
     4    1   43 1
     5    2    3 1
     6    2    4 1
     7    2   44 1
     8    3   45 1
     9    3   46 1
    10    3   47 1
    11    4   13 ar
    12    4    5 ar
    13    5   10 ar
    14    5    6 ar
    15    6    7 ar
    16    6   48 1
    17    7    8 ar
    18    7   49 1
    19    8    9 ar
    20    8   50 1
    21    9   10 ar
    22    9   51 1
    23   10   11 ar
    24   11   12 ar
    25   11   52 1
    26   12   13 ar
    27   12   26 1
    28   13   14 1
    29   14   15 1
    30   15   16 1
    31   15   53 1
    32   15   54 1
    33   16   17 1
    34   16   25 1
    35   16   55 1
    36   17   18 1
    37   17   56 1
    38   17   57 1
    39   18   19 1
    40   18   20 1
    41   18   24 1
    42   20   21 1
    43   20   58 1
    44   20   59 1
    45   21   22 2
    46   21   23 1
    47   24   60 1
    48   25   61 1
    49   26   27 1
    50   26   34 1
    51   26   62 1
    52   27   32 ar
    53   27   28 ar
    54   28   29 ar
    55   28   63 1
    56   29   30 ar
    57   29   64 1
    58   30   31 ar
    59   30   33 1
    60   31   32 ar
    61   31   65 1
    62   32   66 1
    63   34   39 ar
    64   34   35 ar
    65   35   36 ar
    66   35   67 1
    67   36   37 ar
    68   36   68 1
    69   37   38 ar
    70   37   40 1
    71   38   39 ar
    72   38   69 1
    73   39   70 1
@<TRIPOS>MOLECULE
CHEMBL124769
   66    69     0     0     0
SMALL
USER_CHARGES

@<TRIPOS>ATOM
      1 C1         -0.0167    1.3792    0.0096 C.ar      1 <0>        -0.1260
      2 C2          1.1683    2.0931    0.0021 C.ar      1 <0>        -0.1202
      3 C3          2.3774    1.4286   -0.0134 C.ar      1 <0>        -0.1154
      4 C4          2.4032    0.0335   -0.0212 C.ar      1 <0>        -0.0476
      5 C5          1.2045   -0.6806   -0.0131 C.ar      1 <0>        -0.1156
      6 C6          0.0021   -0.0041    0.0020 C.ar      1 <0>        -0.1172
      7 C7          3.6950   -0.6848   -0.0384 C.2       1 <0>        -0.1390
      8 C8          3.7162   -2.0103   -0.0457 C.2       1 <0>        -0.1300
      9 C9          5.0332   -2.7426   -0.0633 C.3       1 <0>        -0.0832
     10 C10         5.0890   -3.7199    1.1126 C.3       1 <0>        -0.0007
     11 C11         6.4629   -4.3996    1.1555 C.3       1 <0>        -0.1126
     12 C12         6.4433   -5.5423    2.1733 C.3       1 <0>        -0.1181
     13 C13         5.6013   -6.7036    1.6297 C.3       1 <0>        -0.0403
     14 C14         4.2754   -6.1500    1.1711 C.2       1 <0>        -0.2116
     15 C15         4.0376   -4.7899    0.9360 C.2       1 <0>         0.0956
     16 N1          2.7994   -4.6427    0.5563 N.2       1 <0>        -0.2792
     17 N2          2.1838   -5.9024    0.5274 N.pl3     1 <0>        -0.3281
     18 C16         3.1137   -6.8316    0.9119 C.2       1 <0>         0.1269
     19 C17         2.9059   -8.2848    1.0255 C.2       1 <0>        -0.1201
     20 C18         1.8630   -8.7560    1.7008 C.2       1 <0>        -0.1402
     21 C19         1.6503  -10.2434    1.8171 C.3       1 <0>         0.1411
     22 H1          0.7308  -10.5204    1.3014 H         1 <0>         0.1134
     23 C20         1.5429  -10.6293    3.2937 C.3       1 <0>        -0.1815
     24 C21         1.2032  -12.1167    3.4087 C.3       1 <0>         0.1379
     25 H2          0.2994  -12.3282    2.8374 H         1 <0>         0.0941
     26 C22         0.9733  -12.4751    4.8783 C.3       1 <0>        -0.2195
     27 C23         0.5193  -13.9085    4.9806 C.2       1 <0>         0.4907
     28 O1          0.3916  -14.5810    3.9717 O.co2     1 <0>        -0.6809
     29 O2          0.2798  -14.3956    6.0723 O.co2     1 <0>        -0.7124
     30 O3          2.2858  -12.8938    2.8927 O.3       1 <0>        -0.5278
     31 O4          2.7544  -10.9302    1.2243 O.3       1 <0>        -0.5365
     32 C24         0.8545   -6.1638    0.1695 C.ar      1 <0>         0.1485
     33 C25         0.5328   -7.3362   -0.5014 C.ar      1 <0>        -0.0958
     34 C26        -0.7779   -7.5922   -0.8528 C.ar      1 <0>        -0.1293
     35 C27        -1.7713   -6.6806   -0.5366 C.ar      1 <0>         0.0976
     36 C28        -1.4525   -5.5105    0.1322 C.ar      1 <0>        -0.1356
     37 C29        -0.1438   -5.2535    0.4904 C.ar      1 <0>        -0.0871
     38 F1         -3.0530   -6.9328   -0.8812 F         1 <0>        -0.1343
     39 H3         -0.9604    1.9041    0.0260 H         1 <0>         0.1197
     40 H4          1.1469    3.1729    0.0082 H         1 <0>         0.1208
     41 H5          3.3018    1.9870   -0.0200 H         1 <0>         0.1215
     42 H6          1.2178   -1.7605   -0.0194 H         1 <0>         0.1258
     43 H7         -0.9265   -0.5556    0.0079 H         1 <0>         0.1211
     44 H8          4.6214   -0.1298   -0.0450 H         1 <0>         0.1151
     45 H9          2.7898   -2.5653   -0.0392 H         1 <0>         0.1341
     46 H10         5.1300   -3.2938   -0.9987 H         1 <0>         0.0770
     47 H11         5.8492   -2.0250    0.0217 H         1 <0>         0.0755
     48 H12         4.9144   -3.1833    2.0451 H         1 <0>         0.0918
     49 H13         6.7017   -4.7970    0.1690 H         1 <0>         0.0695
     50 H14         7.2194   -3.6700    1.4442 H         1 <0>         0.0730
     51 H15         7.4621   -5.8858    2.3527 H         1 <0>         0.0702
     52 H16         6.0108   -5.1874    3.1087 H         1 <0>         0.0647
     53 H17         6.1160   -7.1690    0.7891 H         1 <0>         0.0722
     54 H18         5.4398   -7.4405    2.4164 H         1 <0>         0.0727
     55 H19         3.6011   -8.9678    0.5600 H         1 <0>         0.1473
     56 H20         1.1678   -8.0731    2.1663 H         1 <0>         0.1136
     57 H21         2.4934  -10.4342    3.7903 H         1 <0>         0.0658
     58 H22         0.7579  -10.0397    3.7672 H         1 <0>         0.0757
     59 H23         1.9028  -12.3479    5.4331 H         1 <0>         0.0569
     60 H24         0.2081  -11.8210    5.2964 H         1 <0>         0.0611
     61 H25         3.1241  -12.7560    3.3545 H         1 <0>         0.3507
     62 H26         3.6073  -10.7311    1.6340 H         1 <0>         0.3680
     63 H27         1.3073   -8.0473   -0.7486 H         1 <0>         0.1444
     64 H28        -1.0284   -8.5038   -1.3750 H         1 <0>         0.1476
     65 H29        -2.2285   -4.8006    0.3776 H         1 <0>         0.1439
     66 H30         0.1038   -4.3431    1.0162 H         1 <0>         0.1406
@<TRIPOS>BOND
     1    1    6 ar
     2    1    2 ar
     3    1   39 1
     4    2    3 ar
     5    2   40 1
     6    3    4 ar
     7    3   41 1
     8    4    5 ar
     9    4    7 1
    10    5    6 ar
    11    5   42 1
    12    6   43 1
    13    7    8 2
    14    7   44 1
    15    8    9 1
    16    8   45 1
    17    9   10 1
    18    9   46 1
    19    9   47 1
    20   10   15 1
    21   10   11 1
    22   10   48 1
    23   11   12 1
    24   11   49 1
    25   11   50 1
    26   12   13 1
    27   12   51 1
    28   12   52 1
    29   13   14 1
    30   13   53 1
    31   13   54 1
    32   14   18 2
    33   14   15 1
    34   15   16 2
    35   16   17 1
    36   17   18 1
    37   17   32 1
    38   18   19 1
    39   19   20 2
    40   19   55 1
    41   20   21 1
    42   20   56 1
    43   21   22 1
    44   21   23 1
    45   21   31 1
    46   23   24 1
    47   23   57 1
    48   23   58 1
    49   24   25 1
    50   24   26 1
    51   24   30 1
    52   26   27 1
    53   26   59 1
    54   26   60 1
    55   27   28 2
    56   27   29 1
    57   30   61 1
    58   31   62 1
    59   32   37 ar
    60   32   33 ar
    61   33   34 ar
    62   33   63 1
    63   34   35 ar
    64   34   64 1
    65   35   36 ar
    66   35   38 1
    67   36   37 ar
    68   36   65 1
    69   37   66 1
@<TRIPOS>MOLECULE
CHEMBL124769__1
   66    69     0     0     0
SMALL
USER_CHARGES

@<TRIPOS>ATOM
      1 C1         -0.0167    1.3792    0.0096 C.ar      1 <0>        -0.1267
      2 C2          1.1683    2.0931    0.0021 C.ar      1 <0>        -0.1180
      3 C3          2.3774    1.4286   -0.0134 C.ar      1 <0>        -0.1158
      4 C4          2.4032    0.0335   -0.0212 C.ar      1 <0>        -0.0402
      5 C5          1.2045   -0.6806   -0.0131 C.ar      1 <0>        -0.1150
      6 C6          0.0021   -0.0041    0.0020 C.ar      1 <0>        -0.1179
      7 C7          3.6950   -0.6848   -0.0384 C.2       1 <0>        -0.1140
      8 C8          3.7162   -2.0103   -0.0457 C.2       1 <0>        -0.1237
      9 C9          5.0332   -2.7426   -0.0633 C.3       1 <0>        -0.0826
     10 C10         5.0890   -3.7199    1.1126 C.3       1 <0>         0.0006
     11 C11         6.3860   -4.5353    1.0464 C.3       1 <0>        -0.1131
     12 C12         6.5595   -5.3373    2.3381 C.3       1 <0>        -0.1173
     13 C13         6.9131   -4.3892    3.4909 C.3       1 <0>        -0.0398
     14 C14         5.9136   -3.2596    3.4956 C.2       1 <0>        -0.2118
     15 C15         5.0790   -2.9527    2.4136 C.2       1 <0>         0.0873
     16 N1          4.3366   -1.9310    2.7364 N.2       1 <0>        -0.2599
     17 N2          4.6613   -1.5321    4.0412 N.pl3     1 <0>        -0.3284
     18 C16         5.6444   -2.3671    4.5017 C.2       1 <0>         0.1222
     19 C17         6.2890   -2.3165    5.8245 C.2       1 <0>        -0.1184
     20 C18         6.7729   -1.1676    6.2843 C.2       1 <0>        -0.1421
     21 C19         7.4327   -1.1158    7.6381 C.3       1 <0>         0.1414
     22 H1          6.8420   -0.4894    8.3065 H         1 <0>         0.1129
     23 C20         8.8385   -0.5283    7.4982 C.3       1 <0>        -0.1812
     24 C21         9.4612   -0.3598    8.8856 C.3       1 <0>         0.1378
     25 H2          8.7996    0.2402    9.5104 H         1 <0>         0.0940
     26 C22        10.8146    0.3418    8.7553 C.3       1 <0>        -0.2194
     27 C23        11.3715    0.6179   10.1282 C.2       1 <0>         0.4907
     28 O1         10.7440    0.2845   11.1190 O.co2     1 <0>        -0.6809
     29 O2         12.4495    1.1748   10.2481 O.co2     1 <0>        -0.7126
     30 O3          9.6461   -1.6442    9.4839 O.3       1 <0>        -0.5277
     31 O4          7.5199   -2.4367    8.1764 O.3       1 <0>        -0.5366
     32 C24         4.0833   -0.4689    4.7474 C.ar      1 <0>         0.1498
     33 C25         3.9005   -0.5642    6.1207 C.ar      1 <0>        -0.0968
     34 C26         3.3311    0.4850    6.8150 C.ar      1 <0>        -0.1307
     35 C27         2.9424    1.6316    6.1426 C.ar      1 <0>         0.0966
     36 C28         3.1234    1.7285    4.7730 C.ar      1 <0>        -0.1355
     37 C29         3.6977    0.6838    4.0759 C.ar      1 <0>        -0.0826
     38 F1          2.3856    2.6570    6.8236 F         1 <0>        -0.1351
     39 H3         -0.9604    1.9041    0.0260 H         1 <0>         0.1187
     40 H4          1.1469    3.1729    0.0082 H         1 <0>         0.1203
     41 H5          3.3018    1.9870   -0.0200 H         1 <0>         0.1201
     42 H6          1.2178   -1.7605   -0.0194 H         1 <0>         0.1212
     43 H7         -0.9265   -0.5556    0.0079 H         1 <0>         0.1195
     44 H8          4.6214   -0.1298   -0.0450 H         1 <0>         0.1109
     45 H9          2.7898   -2.5653   -0.0392 H         1 <0>         0.1104
     46 H10         5.1300   -3.2938   -0.9987 H         1 <0>         0.0815
     47 H11         5.8492   -2.0250    0.0217 H         1 <0>         0.0697
     48 H12         4.2303   -4.3902    1.0745 H         1 <0>         0.0902
     49 H13         6.3415   -5.2189    0.1985 H         1 <0>         0.0726
     50 H14         7.2327   -3.8601    0.9224 H         1 <0>         0.0687
     51 H15         5.6304   -5.8584    2.5690 H         1 <0>         0.0643
     52 H16         7.3604   -6.0652    2.2084 H         1 <0>         0.0694
     53 H17         6.8644   -4.9272    4.4377 H         1 <0>         0.0719
     54 H18         7.9173   -3.9911    3.3448 H         1 <0>         0.0709
     55 H19         6.3686   -3.2133    6.4211 H         1 <0>         0.1462
     56 H20         6.6933   -0.2709    5.6877 H         1 <0>         0.1131
     57 H21         9.4556   -1.2006    6.9022 H         1 <0>         0.0657
     58 H22         8.7792    0.4425    7.0062 H         1 <0>         0.0755
     59 H23        11.5044   -0.2985    8.2055 H         1 <0>         0.0568
     60 H24        10.6863    1.2822    8.2194 H         1 <0>         0.0611
     61 H25        10.2253   -2.2328    8.9808 H         1 <0>         0.3506
     62 H26         8.0327   -3.0501    7.6323 H         1 <0>         0.3678
     63 H27         4.2032   -1.4584    6.6453 H         1 <0>         0.1435
     64 H28         3.1885    0.4111    7.8830 H         1 <0>         0.1468
     65 H29         2.8194    2.6234    4.2504 H         1 <0>         0.1424
     66 H30         3.8431    0.7616    3.0086 H         1 <0>         0.1406
@<TRIPOS>BOND
     1    1    6 ar
     2    1    2 ar
     3    1   39 1
     4    2    3 ar
     5    2   40 1
     6    3    4 ar
     7    3   41 1
     8    4    5 ar
     9    4    7 1
    10    5    6 ar
    11    5   42 1
    12    6   43 1
    13    7    8 2
    14    7   44 1
    15    8    9 1
    16    8   45 1
    17    9   10 1
    18    9   46 1
    19    9   47 1
    20   10   15 1
    21   10   11 1
    22   10   48 1
    23   11   12 1
    24   11   49 1
    25   11   50 1
    26   12   13 1
    27   12   51 1
    28   12   52 1
    29   13   14 1
    30   13   53 1
    31   13   54 1
    32   14   18 2
    33   14   15 1
    34   15   16 2
    35   16   17 1
    36   17   18 1
    37   17   32 1
    38   18   19 1
    39   19   20 2
    40   19   55 1
    41   20   21 1
    42   20   56 1
    43   21   22 1
    44   21   23 1
    45   21   31 1
    46   23   24 1
    47   23   57 1
    48   23   58 1
    49   24   25 1
    50   24   26 1
    51   24   30 1
    52   26   27 1
    53   26   59 1
    54   26   60 1
    55   27   28 2
    56   27   29 1
    57   30   61 1
    58   31   62 1
    59   32   37 ar
    60   32   33 ar
    61   33   34 ar
    62   33   63 1
    63   34   35 ar
    64   34   64 1
    65   35   36 ar
    66   35   38 1
    67   36   37 ar
    68   36   65 1
    69   37   66 1
@<TRIPOS>MOLECULE
CHEMBL333760
   58    60     0     0     0
SMALL
USER_CHARGES

@<TRIPOS>ATOM
      1 C1         -0.0187    1.5258    0.0104 C.3       1 <0>        -0.1403
      2 C2          0.0021   -0.0041    0.0020 C.3       1 <0>        -0.0092
      3 C3          0.7421   -0.5109    1.2415 C.3       1 <0>        -0.1400
      4 C4         -1.4117   -0.5257    0.0127 C.2       1 <0>         0.2365
      5 N1         -2.2956   -0.2877    0.9410 N.2       1 <0>        -0.4647
      6 C5         -3.4516   -0.9064    0.6349 C.2       1 <0>         0.0588
      7 C6         -3.2648   -1.5699   -0.5639 C.2       1 <0>         0.0297
      8 N2         -1.9661   -1.3130   -0.9472 N.pl3     1 <0>        -0.4001
      9 C7         -1.3369   -1.7768   -2.1024 C.2       1 <0>         0.0210
     10 C8         -1.3893   -3.0573   -2.4129 C.2       1 <0>        -0.1522
     11 C9         -0.7095   -3.5584   -3.6611 C.3       1 <0>         0.1481
     12 H1         -1.4594   -3.9332   -4.3577 H         1 <0>         0.1166
     13 C10         0.2576   -4.6867   -3.2971 C.3       1 <0>        -0.1808
     14 C11         0.8543   -5.2791   -4.5754 C.3       1 <0>         0.1381
     15 H2          0.0498   -5.5937   -5.2401 H         1 <0>         0.0950
     16 C12         1.7241   -6.4867   -4.2201 C.3       1 <0>        -0.2194
     17 C13         2.2123   -7.1437   -5.4854 C.2       1 <0>         0.4907
     18 O1          1.8941   -6.6883   -6.5707 O.co2     1 <0>        -0.6808
     19 O2          2.9255   -8.1307   -5.4238 O.co2     1 <0>        -0.7117
     20 O3          1.6541   -4.2920   -5.2296 O.3       1 <0>        -0.5275
     21 O4          0.0149   -2.4884   -4.2713 O.3       1 <0>        -0.5358
     22 C14        -4.2584   -2.3856   -1.2899 C.ar      1 <0>        -0.0321
     23 C15        -4.4095   -2.2413   -2.6709 C.ar      1 <0>        -0.0720
     24 C16        -5.3393   -3.0059   -3.3436 C.ar      1 <0>        -0.1481
     25 C17        -6.1233   -3.9157   -2.6520 C.ar      1 <0>         0.1080
     26 C18        -5.9778   -4.0632   -1.2817 C.ar      1 <0>        -0.1500
     27 C19        -5.0470   -3.3086   -0.5992 C.ar      1 <0>        -0.0638
     28 F1         -7.0332   -4.6615   -3.3162 F         1 <0>        -0.1362
     29 C20        -4.6968   -0.8815    1.4368 C.ar      1 <0>        -0.0085
     30 C21        -5.9385   -0.8884    0.8014 C.ar      1 <0>        -0.0753
     31 C22        -7.0953   -0.8651    1.5526 C.ar      1 <0>        -0.1512
     32 C23        -7.0251   -0.8348    2.9361 C.ar      1 <0>         0.0972
     33 C24        -5.7941   -0.8274    3.5720 C.ar      1 <0>        -0.1536
     34 C25        -4.6316   -0.8568    2.8298 C.ar      1 <0>        -0.0639
     35 F2         -8.1608   -0.8121    3.6674 F         1 <0>        -0.1409
     36 H3          1.0039    1.9031    0.0027 H         1 <0>         0.0660
     37 H4         -0.5459    1.8868   -0.8726 H         1 <0>         0.0543
     38 H5         -0.5289    1.8773    0.9072 H         1 <0>         0.0681
     39 H6          0.5123   -0.3556   -0.8948 H         1 <0>         0.0859
     40 H7          0.2319   -0.1594    2.1383 H         1 <0>         0.0678
     41 H8          0.7568   -1.6008    1.2356 H         1 <0>         0.0546
     42 H9          1.7647   -0.1336    1.2338 H         1 <0>         0.0660
     43 H10        -0.8068   -1.0872   -2.7426 H         1 <0>         0.1601
     44 H11        -1.9194   -3.7469   -1.7728 H         1 <0>         0.1231
     45 H12         1.0580   -4.2916   -2.6717 H         1 <0>         0.0664
     46 H13        -0.2791   -5.4637   -2.7527 H         1 <0>         0.0774
     47 H14         2.5784   -6.1577   -3.6286 H         1 <0>         0.0571
     48 H15         1.1362   -7.2008   -3.6434 H         1 <0>         0.0616
     49 H16         2.3910   -3.9656   -4.6953 H         1 <0>         0.3508
     50 H17         0.7006   -2.1056   -3.7070 H         1 <0>         0.3675
     51 H18        -3.7996   -1.5321   -3.2108 H         1 <0>         0.1321
     52 H19        -5.4570   -2.8952   -4.4115 H         1 <0>         0.1409
     53 H20        -6.5917   -4.7735   -0.7479 H         1 <0>         0.1404
     54 H21        -4.9313   -3.4275    0.4680 H         1 <0>         0.1356
     55 H22        -5.9941   -0.9116   -0.2770 H         1 <0>         0.1326
     56 H23        -8.0571   -0.8701    1.0615 H         1 <0>         0.1365
     57 H24        -5.7446   -0.8035    4.6506 H         1 <0>         0.1367
     58 H25        -3.6726   -0.8559    3.3265 H         1 <0>         0.1374
@<TRIPOS>BOND
     1    1    2 1
     2    1   36 1
     3    1   37 1
     4    1   38 1
     5    2    3 1
     6    2    4 1
     7    2   39 1
     8    3   40 1
     9    3   41 1
    10    3   42 1
    11    4    8 1
    12    4    5 2
    13    5    6 1
    14    6    7 2
    15    6   29 1
    16    7    8 1
    17    7   22 1
    18    8    9 1
    19    9   10 2
    20    9   43 1
    21   10   11 1
    22   10   44 1
    23   11   12 1
    24   11   13 1
    25   11   21 1
    26   13   14 1
    27   13   45 1
    28   13   46 1
    29   14   15 1
    30   14   16 1
    31   14   20 1
    32   16   17 1
    33   16   47 1
    34   16   48 1
    35   17   18 2
    36   17   19 1
    37   20   49 1
    38   21   50 1
    39   22   27 ar
    40   22   23 ar
    41   23   24 ar
    42   23   51 1
    43   24   25 ar
    44   24   52 1
    45   25   26 ar
    46   25   28 1
    47   26   27 ar
    48   26   53 1
    49   27   54 1
    50   29   34 ar
    51   29   30 ar
    52   30   31 ar
    53   30   55 1
    54   31   32 ar
    55   31   56 1
    56   32   33 ar
    57   32   35 1
    58   33   34 ar
    59   33   57 1
    60   34   58 1
@<TRIPOS>MOLECULE
CHEMBL333760__1
   59    61     0     0     0
SMALL
USER_CHARGES

@<TRIPOS>ATOM
      1 C1          0.1444    1.3335    0.2924 C.3       1 <0>        -0.1631
      2 C2          0.0297   -0.1867    0.4217 C.3       1 <0>        -0.0406
      3 C3          0.4670   -0.6137    1.8243 C.3       1 <0>        -0.1556
      4 C4         -1.4002   -0.6038    0.1926 C.cat     1 <0>         0.3239
      5 N1         -2.4510    0.0828    0.5448 N.pl3     1 <0>        -0.4668
      6 C5         -3.5665   -0.5814    0.1879 C.2       1 <0>         0.0883
      7 C6         -3.1736   -1.7568   -0.4257 C.2       1 <0>         0.1185
      8 N2         -1.7954   -1.7521   -0.4189 N.pl3     1 <0>        -0.3422
      9 C7         -0.9618   -2.7419   -0.9392 C.2       1 <0>        -0.0324
     10 C8         -1.1607   -4.0059   -0.6207 C.2       1 <0>        -0.0890
     11 C9         -0.2600   -5.0754   -1.1829 C.3       1 <0>         0.1401
     12 H1         -0.8373   -5.7308   -1.8350 H         1 <0>         0.1315
     13 C10         0.3370   -5.8939   -0.0363 C.3       1 <0>        -0.1822
     14 C11         1.1512   -7.0558   -0.6092 C.3       1 <0>         0.1375
     15 H2          0.5246   -7.6419   -1.2814 H         1 <0>         0.0981
     16 C12         1.6443   -7.9453    0.5338 C.3       1 <0>        -0.2201
     17 C13         2.3407   -9.1545   -0.0353 C.2       1 <0>         0.4891
     18 O1          2.4340   -9.2921   -1.2432 O.co2     1 <0>        -0.6797
     19 O2          2.8109   -9.9953    0.7121 O.co2     1 <0>        -0.7062
     20 O3          2.2725   -6.5416   -1.3304 O.3       1 <0>        -0.5257
     21 O4          0.7934   -4.4658   -1.9318 O.3       1 <0>        -0.5286
     22 C14        -4.0538   -2.8041   -0.9810 C.ar      1 <0>        -0.0859
     23 C15        -3.8879   -3.2324   -2.3000 C.ar      1 <0>        -0.0514
     24 C16        -4.7131   -4.2108   -2.8133 C.ar      1 <0>        -0.1483
     25 C17        -5.7056   -4.7687   -2.0231 C.ar      1 <0>         0.1417
     26 C18        -5.8748   -4.3478   -0.7135 C.ar      1 <0>        -0.1502
     27 C19        -5.0517   -3.3744   -0.1875 C.ar      1 <0>        -0.0449
     28 F1         -6.5116   -5.7264   -2.5315 F         1 <0>        -0.1226
     29 C20        -4.9608   -0.1348    0.4124 C.ar      1 <0>        -0.0747
     30 C21        -5.3458    0.3566    1.6597 C.ar      1 <0>        -0.0639
     31 C22        -6.6456    0.7713    1.8638 C.ar      1 <0>        -0.1486
     32 C23        -7.5681    0.7001    0.8324 C.ar      1 <0>         0.1362
     33 C24        -7.1906    0.2122   -0.4084 C.ar      1 <0>        -0.1473
     34 C25        -5.8917   -0.1991   -0.6243 C.ar      1 <0>        -0.0432
     35 F2         -8.8398    1.1074    1.0372 F         1 <0>        -0.1243
     36 H3          1.1787    1.6352    0.4581 H         1 <0>         0.0987
     37 H4         -0.1671    1.6377   -0.7069 H         1 <0>         0.0737
     38 H5         -0.4965    1.8106    1.0338 H         1 <0>         0.0635
     39 H6          0.6706   -0.6638   -0.3197 H         1 <0>         0.1289
     40 H7          0.3852   -1.6967    1.9164 H         1 <0>         0.0717
     41 H8          1.5012   -0.3120    1.9900 H         1 <0>         0.0956
     42 H9         -0.1739   -0.1366    2.5657 H         1 <0>         0.0669
     43 H10        -0.1533   -2.4731   -1.6030 H         1 <0>         0.1874
     44 H11        -1.9691   -4.2748    0.0430 H         1 <0>         0.1336
     45 H12         0.9858   -5.2573    0.5652 H         1 <0>         0.0691
     46 H13        -0.4667   -6.2860    0.5870 H         1 <0>         0.0815
     47 H14         2.3412   -7.3841    1.1563 H         1 <0>         0.0577
     48 H15         0.7950   -8.2657    1.1373 H         1 <0>         0.0623
     49 H16         2.8747   -6.0086   -0.7934 H         1 <0>         0.3516
     50 H17         1.3493   -3.8679   -1.4136 H         1 <0>         0.3690
     51 H18        -3.1153   -2.7978   -2.9169 H         1 <0>         0.1392
     52 H19        -4.5858   -4.5428   -3.8331 H         1 <0>         0.1520
     53 H20        -6.6502   -4.7858   -0.1025 H         1 <0>         0.1507
     54 H21        -5.1816   -3.0503    0.8345 H         1 <0>         0.1399
     55 H22        -4.6277    0.4122    2.4644 H         1 <0>         0.1372
     56 H23        -6.9448    1.1517    2.8294 H         1 <0>         0.1500
     57 H24        -7.9133    0.1584   -1.2091 H         1 <0>         0.1507
     58 H25        -5.5972   -0.5747   -1.5931 H         1 <0>         0.1417
     59 H26        -2.4321    0.9414    0.9957 H         1 <0>         0.4596
@<TRIPOS>BOND
     1    1    2 1
     2    1   36 1
     3    1   37 1
     4    1   38 1
     5    2    3 1
     6    2    4 1
     7    2   39 1
     8    3   40 1
     9    3   41 1
    10    3   42 1
    11    4    8 1
    12    4    5 2
    13    5    6 1
    14    5   59 1
    15    6    7 2
    16    6   29 1
    17    7    8 1
    18    7   22 1
    19    8    9 1
    20    9   10 2
    21    9   43 1
    22   10   11 1
    23   10   44 1
    24   11   12 1
    25   11   13 1
    26   11   21 1
    27   13   14 1
    28   13   45 1
    29   13   46 1
    30   14   15 1
    31   14   16 1
    32   14   20 1
    33   16   17 1
    34   16   47 1
    35   16   48 1
    36   17   18 2
    37   17   19 1
    38   20   49 1
    39   21   50 1
    40   22   27 ar
    41   22   23 ar
    42   23   24 ar
    43   23   51 1
    44   24   25 ar
    45   24   52 1
    46   25   26 ar
    47   25   28 1
    48   26   27 ar
    49   26   53 1
    50   27   54 1
    51   29   34 ar
    52   29   30 ar
    53   30   31 ar
    54   30   55 1
    55   31   32 ar
    56   31   56 1
    57   32   33 ar
    58   32   35 1
    59   33   34 ar
    60   33   57 1
    61   34   58 1
@<TRIPOS>MOLECULE
CHEMBL250707
   72    75     0     0     0
SMALL
USER_CHARGES

@<TRIPOS>ATOM
      1 C1         -0.0921    1.5832   -0.1667 C.3       1 <0>        -0.1735
      2 C2         -0.1069    0.0580   -0.2857 C.3       1 <0>         0.1193
      3 C3         -1.5530   -0.4317   -0.3864 C.3       1 <0>        -0.1756
      4 N1          0.6300   -0.3454   -1.4859 N.pl3     1 <0>        -0.4017
      5 C4          1.7083   -1.1648   -1.5064 C.2       1 <0>         0.0741
      6 C5          2.1285   -1.3158   -2.7943 C.2       1 <0>        -0.1220
      7 C6          1.2641   -0.5487   -3.6167 C.2       1 <0>        -0.0573
      8 C7          0.3328    0.0433   -2.7725 C.2       1 <0>        -0.0331
      9 C8         -0.7641    0.9243   -3.1778 C.2       1 <0>         0.6084
     10 O1         -0.5751    2.1221   -3.2846 O.2       1 <0>        -0.5170
     11 N2         -1.9832    0.4092   -3.4326 N.am      1 <0>        -0.6930
     12 C9         -3.0535    1.2741   -3.9351 C.3       1 <0>         0.0782
     13 C10        -4.4438    1.1088   -3.3181 C.3       1 <0>        -0.1915
     14 C11        -4.1747    0.6151   -4.7410 C.3       1 <0>        -0.1862
     15 C12         1.3371   -0.4099   -5.0890 C.ar      1 <0>        -0.0103
     16 C13         2.4394    0.2075   -5.6804 C.ar      1 <0>        -0.0948
     17 C14         2.5015    0.3339   -7.0530 C.ar      1 <0>        -0.1185
     18 C15         1.4733   -0.1498   -7.8423 C.ar      1 <0>        -0.1212
     19 C16         0.3773   -0.7626   -7.2617 C.ar      1 <0>        -0.1195
     20 C17         0.3066   -0.9010   -5.8907 C.ar      1 <0>        -0.1069
     21 C18         3.2791   -2.1328   -3.2519 C.ar      1 <0>        -0.0087
     22 C19         4.5747   -1.7926   -2.8674 C.ar      1 <0>        -0.0814
     23 C20         5.6419   -2.5554   -3.2955 C.ar      1 <0>        -0.1504
     24 C21         5.4270   -3.6577   -4.1067 C.ar      1 <0>         0.0949
     25 C22         4.1409   -3.9993   -4.4918 C.ar      1 <0>        -0.1508
     26 C23         3.0671   -3.2461   -4.0630 C.ar      1 <0>        -0.0732
     27 F1          6.4749   -4.4014   -4.5239 F         1 <0>        -0.1418
     28 C24         2.3421   -1.8062   -0.2990 C.3       1 <0>        -0.0539
     29 C25         1.6868   -3.1643   -0.0399 C.3       1 <0>        -0.1431
     30 C26         2.3303   -3.8155    1.1860 C.3       1 <0>         0.1134
     31 H1          3.4092   -3.8739    1.0421 H         1 <0>         0.0985
     32 C27         1.7635   -5.2244    1.3716 C.3       1 <0>        -0.1859
     33 C28         2.4954   -5.9213    2.5204 C.3       1 <0>         0.1374
     34 H2          3.5685   -5.9062    2.3298 H         1 <0>         0.0928
     35 C29         2.0165   -7.3707    2.6255 C.3       1 <0>        -0.2192
     36 C30         2.8233   -8.0914    3.6746 C.2       1 <0>         0.4903
     37 O2          3.7001   -7.5007    4.2819 O.co2     1 <0>        -0.6809
     38 O3          2.5993   -9.2653    3.9160 O.co2     1 <0>        -0.7132
     39 O4          2.2193   -5.2385    3.7449 O.3       1 <0>        -0.5278
     40 O5          2.0463   -3.0311    2.3463 O.3       1 <0>        -0.5416
     41 H3          0.9352    1.9286   -0.0505 H         1 <0>         0.0665
     42 H4         -0.5233    2.0221   -1.0664 H         1 <0>         0.0746
     43 H5         -0.6775    1.8857    0.7016 H         1 <0>         0.0770
     44 H6          0.3644   -0.3797    0.5943 H         1 <0>         0.1104
     45 H7         -2.0031   -0.0493   -1.3025 H         1 <0>         0.0685
     46 H8         -1.5673   -1.5215   -0.4020 H         1 <0>         0.0673
     47 H9         -2.1187   -0.0731    0.4735 H         1 <0>         0.0805
     48 H10        -2.1519   -0.5343   -3.2833 H         1 <0>         0.4036
     49 H11        -2.7481    2.2791   -4.2264 H         1 <0>         0.1388
     50 H12        -4.5621    0.3564   -2.5383 H         1 <0>         0.0974
     51 H13        -5.0533    2.0051   -3.2031 H         1 <0>         0.1036
     52 H14        -4.6072    1.1866   -5.5622 H         1 <0>         0.1049
     53 H15        -4.1160   -0.4621   -4.8974 H         1 <0>         0.0984
     54 H16         3.2423    0.5861   -5.0653 H         1 <0>         0.1208
     55 H17         3.3543    0.8117   -7.5121 H         1 <0>         0.1212
     56 H18         1.5264   -0.0481   -8.9162 H         1 <0>         0.1192
     57 H19        -0.4225   -1.1375   -7.8831 H         1 <0>         0.1201
     58 H20        -0.5473   -1.3840   -5.4389 H         1 <0>         0.1159
     59 H21         4.7432   -0.9331   -2.2356 H         1 <0>         0.1311
     60 H22         6.6463   -2.2925   -2.9980 H         1 <0>         0.1348
     61 H23         3.9780   -4.8590   -5.1248 H         1 <0>         0.1335
     62 H24         2.0643   -3.5162   -4.3594 H         1 <0>         0.1286
     63 H25         3.4081   -1.9456   -0.4791 H         1 <0>         0.0906
     64 H26         2.2015   -1.1633    0.5699 H         1 <0>         0.0804
     65 H27         0.6209   -3.0249    0.1403 H         1 <0>         0.0605
     66 H28         1.8274   -3.8073   -0.9087 H         1 <0>         0.0757
     67 H29         0.7004   -5.1607    1.6036 H         1 <0>         0.0609
     68 H30         1.9015   -5.7954    0.4534 H         1 <0>         0.0739
     69 H31         0.9627   -7.3858    2.9036 H         1 <0>         0.0555
     70 H32         2.1456   -7.8666    1.6635 H         1 <0>         0.0608
     71 H33         1.2812   -5.2128    3.9781 H         1 <0>         0.3490
     72 H34         1.1028   -2.9365    2.5357 H         1 <0>         0.3624
@<TRIPOS>BOND
     1    1    2 1
     2    1   41 1
     3    1   42 1
     4    1   43 1
     5    2    3 1
     6    2    4 1
     7    2   44 1
     8    3   45 1
     9    3   46 1
    10    3   47 1
    11    4    8 1
    12    4    5 1
    13    5    6 2
    14    5   28 1
    15    6    7 1
    16    6   21 1
    17    7    8 2
    18    7   15 1
    19    8    9 1
    20    9   10 2
    21    9   11 am
    22   11   12 1
    23   11   48 1
    24   12   14 1
    25   12   13 1
    26   12   49 1
    27   13   14 1
    28   13   50 1
    29   13   51 1
    30   14   52 1
    31   14   53 1
    32   15   20 ar
    33   15   16 ar
    34   16   17 ar
    35   16   54 1
    36   17   18 ar
    37   17   55 1
    38   18   19 ar
    39   18   56 1
    40   19   20 ar
    41   19   57 1
    42   20   58 1
    43   21   26 ar
    44   21   22 ar
    45   22   23 ar
    46   22   59 1
    47   23   24 ar
    48   23   60 1
    49   24   25 ar
    50   24   27 1
    51   25   26 ar
    52   25   61 1
    53   26   62 1
    54   28   29 1
    55   28   63 1
    56   28   64 1
    57   29   30 1
    58   29   65 1
    59   29   66 1
    60   30   31 1
    61   30   32 1
    62   30   40 1
    63   32   33 1
    64   32   67 1
    65   32   68 1
    66   33   34 1
    67   33   35 1
    68   33   39 1
    69   35   36 1
    70   35   69 1
    71   35   70 1
    72   36   37 2
    73   36   38 1
    74   39   71 1
    75   40   72 1
@<TRIPOS>MOLECULE
CHEMBL355889
   64    67     0     0     0
SMALL
USER_CHARGES

@<TRIPOS>ATOM
      1 C1          1.0140    0.6917   -0.5676 C.3       1 <0>        -0.1422
      2 C2          0.8260   -0.7922   -0.2458 C.3       1 <0>        -0.0587
      3 H1          1.4373   -1.3958   -0.9167 H         1 <0>         0.0860
      4 C3         -0.6521   -1.1753   -0.4030 C.3       1 <0>        -0.1319
      5 C4         -0.7976   -2.6651   -0.0998 C.3       1 <0>         0.0984
      6 H2         -0.2092   -3.2329   -0.8206 H         1 <0>         0.0922
      7 C5         -0.3280   -3.0054    1.2949 C.3       1 <0>        -0.0444
      8 C6         -1.4948   -3.1250    2.2781 C.3       1 <0>        -0.0644
      9 H3         -1.9283   -2.1402    2.4524 H         1 <0>         0.0766
     10 C7         -0.9692   -3.6948    3.5966 C.3       1 <0>        -0.0601
     11 H4         -1.7526   -3.6256    4.3513 H         1 <0>         0.0835
     12 C8          0.2398   -2.9517    4.0773 C.2       1 <0>        -0.1371
     13 C9          1.0041   -2.2006    3.3036 C.2       1 <0>        -0.1241
     14 C10         0.6705   -2.0444    1.8688 C.2       1 <0>        -0.0851
     15 C11         1.2212   -1.0587    1.1837 C.2       1 <0>        -0.1368
     16 C12        -0.6010   -5.1659    3.3931 C.3       1 <0>        -0.1572
     17 C13        -2.5595   -4.0592    1.6997 C.3       1 <0>        -0.1149
     18 C14        -3.4618   -4.5642    2.8274 C.3       1 <0>        -0.1301
     19 C15        -4.5265   -5.4984    2.2491 C.3       1 <0>         0.1098
     20 C16        -5.5017   -5.9092    3.3556 C.3       1 <0>        -0.1537
     21 C17        -6.5417   -6.8771    2.7823 C.3       1 <0>         0.1041
     22 H5         -7.2303   -7.1819    3.5703 H         1 <0>         0.0782
     23 C18        -5.8182   -8.1104    2.2267 C.3       1 <0>        -0.2053
     24 C19        -4.7301   -7.6393    1.2869 C.2       1 <0>         0.4961
     25 O1         -4.6106   -8.1188    0.1843 O.2       1 <0>        -0.4536
     26 O2         -3.8969   -6.6686    1.7155 O.3       1 <0>        -0.3667
     27 O3         -7.2686   -6.2329    1.7341 O.3       1 <0>        -0.5617
     28 O4         -2.1722   -3.0337   -0.2289 O.3       1 <0>        -0.2842
     29 C20        -2.5831   -3.4443   -1.4425 C.2       1 <0>         0.5824
     30 O5         -1.7968   -3.4886   -2.3669 O.2       1 <0>        -0.5292
     31 O6         -3.8655   -3.8059   -1.6320 O.3       1 <0>        -0.2658
     32 C21        -4.2116   -4.3193   -2.8421 C.ar      1 <0>         0.0902
     33 C22        -4.9081   -3.5398   -3.7540 C.ar      1 <0>        -0.1102
     34 C23        -5.2584   -4.0636   -4.9834 C.ar      1 <0>        -0.1079
     35 C24        -4.9153   -5.3638   -5.3052 C.ar      1 <0>        -0.1090
     36 C25        -4.2215   -6.1430   -4.3978 C.ar      1 <0>        -0.1047
     37 C26        -3.8640   -5.6218   -3.1694 C.ar      1 <0>        -0.1095
     38 H6          2.0624    0.9611   -0.4402 H         1 <0>         0.0604
     39 H7          0.7128    0.8810   -1.5979 H         1 <0>         0.0589
     40 H8          0.4006    1.2901    0.1060 H         1 <0>         0.0581
     41 H9         -1.2574   -0.5975    0.2955 H         1 <0>         0.0792
     42 H10        -0.9767   -0.9749   -1.4240 H         1 <0>         0.0753
     43 H11         0.1463   -3.9859    1.2532 H         1 <0>         0.0884
     44 H12         0.5031   -3.0348    5.1214 H         1 <0>         0.1075
     45 H13         1.8688   -1.7021    3.7161 H         1 <0>         0.1195
     46 H14         1.9653   -0.4336    1.6549 H         1 <0>         0.1178
     47 H15         0.1693   -5.2449    2.6260 H         1 <0>         0.0555
     48 H16        -0.2254   -5.5792    4.3292 H         1 <0>         0.0545
     49 H17        -1.4847   -5.7215    3.0793 H         1 <0>         0.0768
     50 H18        -3.1599   -3.5176    0.9689 H         1 <0>         0.1070
     51 H19        -2.0747   -4.9068    1.2152 H         1 <0>         0.0676
     52 H20        -2.8614   -5.1058    3.5583 H         1 <0>         0.0883
     53 H21        -3.9466   -3.7166    3.3119 H         1 <0>         0.0859
     54 H22        -5.0702   -4.9842    1.4565 H         1 <0>         0.0866
     55 H23        -4.9534   -6.3992    4.1601 H         1 <0>         0.0945
     56 H24        -6.0044   -5.0236    3.7444 H         1 <0>         0.0975
     57 H25        -5.3760   -8.6771    3.0461 H         1 <0>         0.1171
     58 H26        -6.5255   -8.7382    1.6847 H         1 <0>         0.1065
     59 H27        -7.9454   -6.7896    1.3251 H         1 <0>         0.3854
     60 H28        -5.1766   -2.5242   -3.5030 H         1 <0>         0.1330
     61 H29        -5.8009   -3.4572   -5.6935 H         1 <0>         0.1344
     62 H30        -5.1900   -5.7716   -6.2668 H         1 <0>         0.1311
     63 H31        -3.9553   -7.1585   -4.6512 H         1 <0>         0.1330
     64 H32        -3.3183   -6.2293   -2.4627 H         1 <0>         0.1308
@<TRIPOS>BOND
     1    1    2 1
     2    1   38 1
     3    1   39 1
     4    1   40 1
     5    2    3 1
     6    2   15 1
     7    2    4 1
     8    4    5 1
     9    4   41 1
    10    4   42 1
    11    5    6 1
    12    5    7 1
    13    5   28 1
    14    7   14 1
    15    7    8 1
    16    7   43 1
    17    8    9 1
    18    8   10 1
    19    8   17 1
    20   10   11 1
    21   10   12 1
    22   10   16 1
    23   12   13 2
    24   12   44 1
    25   13   14 1
    26   13   45 1
    27   14   15 2
    28   15   46 1
    29   16   47 1
    30   16   48 1
    31   16   49 1
    32   17   18 1
    33   17   50 1
    34   17   51 1
    35   18   19 1
    36   18   52 1
    37   18   53 1
    38   19   26 1
    39   19   20 1
    40   19   54 1
    41   20   21 1
    42   20   55 1
    43   20   56 1
    44   21   22 1
    45   21   23 1
    46   21   27 1
    47   23   24 1
    48   23   57 1
    49   23   58 1
    50   24   25 2
    51   24   26 1
    52   27   59 1
    53   28   29 1
    54   29   30 2
    55   29   31 1
    56   31   32 1
    57   32   37 ar
    58   32   33 ar
    59   33   34 ar
    60   33   60 1
    61   34   35 ar
    62   34   61 1
    63   35   36 ar
    64   35   62 1
    65   36   37 ar
    66   36   63 1
    67   37   64 1
@<TRIPOS>MOLECULE
CHEMBL355889__1
   64    67     0     0     0
SMALL
USER_CHARGES

@<TRIPOS>ATOM
      1 C1          0.9602    0.7975   -0.5204 C.3       1 <0>        -0.1429
      2 C2          0.8159   -0.6909   -0.1967 C.3       1 <0>        -0.0582
      3 H1          1.4836   -1.2733   -0.8316 H         1 <0>         0.0866
      4 C3         -0.6359   -1.1342   -0.4242 C.3       1 <0>        -0.1351
      5 C4         -0.7367   -2.6269   -0.1169 C.3       1 <0>         0.0984
      6 H2         -0.0908   -3.1747   -0.8030 H         1 <0>         0.0925
      7 C5         -0.3242   -2.9398    1.3021 C.3       1 <0>        -0.0422
      8 C6         -1.5329   -3.1006    2.2269 C.3       1 <0>        -0.0655
      9 H3         -2.0136   -2.1331    2.3718 H         1 <0>         0.0785
     10 C7         -1.0515   -3.6411    3.5744 C.3       1 <0>        -0.0620
     11 H4         -1.8737   -3.5991    4.2887 H         1 <0>         0.0853
     12 C8          0.1013   -2.8470    4.1087 C.2       1 <0>        -0.1381
     13 C9          0.8727   -2.0702    3.3680 C.2       1 <0>        -0.1225
     14 C10         0.6051   -1.9360    1.9173 C.2       1 <0>        -0.0870
     15 C11         1.1496   -0.9329    1.2527 C.2       1 <0>        -0.1348
     16 C12        -0.6151   -5.0972    3.4011 C.3       1 <0>        -0.1560
     17 C13        -2.5291   -4.0804    1.6038 C.3       1 <0>        -0.1147
     18 C14        -3.4604   -4.6211    2.6906 C.3       1 <0>        -0.1285
     19 C15        -4.3664   -5.7007    2.0951 C.3       1 <0>         0.1094
     20 C16        -5.1972   -6.3426    3.2095 C.3       1 <0>        -0.1556
     21 C17        -6.1328   -7.3939    2.6041 C.3       1 <0>         0.1085
     22 H5         -5.5432   -8.1646    2.1074 H         1 <0>         0.0658
     23 C18        -7.0511   -6.7112    1.5824 C.3       1 <0>        -0.2054
     24 C19        -6.1884   -5.9263    0.6186 C.2       1 <0>         0.4888
     25 O1         -6.3401   -6.0280   -0.5757 O.2       1 <0>        -0.4427
     26 O2         -5.2449   -5.1094    1.1312 O.3       1 <0>        -0.3583
     27 O3         -6.9205   -7.9863    3.6387 O.3       1 <0>        -0.5561
     28 O4         -2.0873   -3.0515   -0.3112 O.3       1 <0>        -0.2817
     29 C20        -2.4500   -3.3798   -1.5646 C.2       1 <0>         0.5890
     30 O5         -1.6203   -3.4010   -2.4510 O.2       1 <0>        -0.5254
     31 O6         -3.7324   -3.6847   -1.8359 O.3       1 <0>        -0.2447
     32 C21        -4.0264   -4.1633   -3.0738 C.ar      1 <0>         0.0964
     33 C22        -3.0051   -4.5406   -3.9334 C.ar      1 <0>        -0.1838
     34 C23        -3.3065   -5.0271   -5.1908 C.ar      1 <0>        -0.1023
     35 C24        -4.6248   -5.1381   -5.5927 C.ar      1 <0>        -0.1332
     36 C25        -5.6445   -4.7623   -4.7378 C.ar      1 <0>        -0.0988
     37 C26        -5.3485   -4.2806   -3.4774 C.ar      1 <0>        -0.1079
     38 H6          1.9894    1.1097   -0.3432 H         1 <0>         0.0606
     39 H7          0.7036    0.9684   -1.5659 H         1 <0>         0.0593
     40 H8          0.2905    1.3746    0.1171 H         1 <0>         0.0582
     41 H9         -1.2981   -0.5773    0.2388 H         1 <0>         0.0796
     42 H10        -0.9169   -0.9531   -1.4616 H         1 <0>         0.0765
     43 H11         0.1905   -3.9006    1.2917 H         1 <0>         0.0888
     44 H12         0.3152   -2.9133    5.1652 H         1 <0>         0.1083
     45 H13         1.6950   -1.5348    3.8191 H         1 <0>         0.1200
     46 H14         1.8436   -0.2755    1.7553 H         1 <0>         0.1182
     47 H15         0.1951   -5.1496    2.6738 H         1 <0>         0.0575
     48 H16        -0.2704   -5.4896    4.3578 H         1 <0>         0.0575
     49 H17        -1.4590   -5.6899    3.0481 H         1 <0>         0.0692
     50 H18        -3.1176   -3.5662    0.8439 H         1 <0>         0.1152
     51 H19        -1.9870   -4.9075    1.1454 H         1 <0>         0.0596
     52 H20        -2.8665   -5.0499    3.4978 H         1 <0>         0.1001
     53 H21        -4.0725   -3.8085    3.0819 H         1 <0>         0.0802
     54 H22        -3.7552   -6.4626    1.6113 H         1 <0>         0.0758
     55 H23        -4.5327   -6.8190    3.9302 H         1 <0>         0.0972
     56 H24        -5.7879   -5.5756    3.7105 H         1 <0>         0.0913
     57 H25        -7.6187   -7.4652    1.0371 H         1 <0>         0.1056
     58 H26        -7.7352   -6.0362    2.0967 H         1 <0>         0.1166
     59 H27        -7.5367   -8.6626    3.3256 H         1 <0>         0.3851
     60 H28        -1.9752   -4.4537   -3.6201 H         1 <0>         0.1837
     61 H29        -2.5117   -5.3206   -5.8605 H         1 <0>         0.1272
     62 H30        -4.8584   -5.5187   -6.5760 H         1 <0>         0.1255
     63 H31        -6.6734   -4.8493   -5.0543 H         1 <0>         0.1329
     64 H32        -6.1455   -3.9913   -2.8084 H         1 <0>         0.1344
@<TRIPOS>BOND
     1    1    2 1
     2    1   38 1
     3    1   39 1
     4    1   40 1
     5    2    3 1
     6    2   15 1
     7    2    4 1
     8    4    5 1
     9    4   41 1
    10    4   42 1
    11    5    6 1
    12    5    7 1
    13    5   28 1
    14    7   14 1
    15    7    8 1
    16    7   43 1
    17    8    9 1
    18    8   10 1
    19    8   17 1
    20   10   11 1
    21   10   12 1
    22   10   16 1
    23   12   13 2
    24   12   44 1
    25   13   14 1
    26   13   45 1
    27   14   15 2
    28   15   46 1
    29   16   47 1
    30   16   48 1
    31   16   49 1
    32   17   18 1
    33   17   50 1
    34   17   51 1
    35   18   19 1
    36   18   52 1
    37   18   53 1
    38   19   26 1
    39   19   20 1
    40   19   54 1
    41   20   21 1
    42   20   55 1
    43   20   56 1
    44   21   22 1
    45   21   23 1
    46   21   27 1
    47   23   24 1
    48   23   57 1
    49   23   58 1
    50   24   25 2
    51   24   26 1
    52   27   59 1
    53   28   29 1
    54   29   30 2
    55   29   31 1
    56   31   32 1
    57   32   37 ar
    58   32   33 ar
    59   33   34 ar
    60   33   60 1
    61   34   35 ar
    62   34   61 1
    63   35   36 ar
    64   35   62 1
    65   36   37 ar
    66   36   63 1
    67   37   64 1
@<TRIPOS>MOLECULE
CHEMBL355889__2
   64    67     0     0     0
SMALL
USER_CHARGES

@<TRIPOS>ATOM
      1 C1         -0.4683    1.5679   -0.0398 C.3       1 <0>        -0.1344
      2 C2         -0.3765    0.0409   -0.0673 C.3       1 <0>        -0.0581
      3 H1         -0.0021   -0.2891   -1.0364 H         1 <0>         0.0812
      4 C3         -1.7617   -0.5682    0.1899 C.3       1 <0>        -0.1396
      5 C4         -2.2656   -0.0637    1.5406 C.3       1 <0>         0.1133
      6 H2         -3.2459   -0.4975    1.7380 H         1 <0>         0.0948
      7 C5         -1.3287   -0.4337    2.6661 C.3       1 <0>        -0.0458
      8 C6         -1.8096   -1.6713    3.4273 C.3       1 <0>        -0.0720
      9 H3         -2.8527   -1.5409    3.7154 H         1 <0>         0.0820
     10 C7         -0.9490   -1.8423    4.6801 C.3       1 <0>        -0.0576
     11 H4         -1.1926   -1.0515    5.3896 H         1 <0>         0.0840
     12 C8          0.5133   -1.7780    4.3594 C.2       1 <0>        -0.1388
     13 C9          1.0074   -1.2399    3.2579 C.2       1 <0>        -0.1259
     14 C10         0.0917   -0.6669    2.2443 C.2       1 <0>        -0.0703
     15 C11         0.5458   -0.4349    1.0252 C.2       1 <0>        -0.1440
     16 C12        -1.2595   -3.1979    5.3179 C.3       1 <0>        -0.1504
     17 C13        -1.6743   -2.9070    2.5353 C.3       1 <0>        -0.1179
     18 C14        -0.1926   -3.2309    2.3339 C.3       1 <0>        -0.1571
     19 C15        -0.0582   -4.5441    1.5604 C.3       1 <0>         0.1072
     20 C16         1.4200   -4.9305    1.4624 C.3       1 <0>        -0.1508
     21 C17         1.5541   -6.2237    0.6519 C.3       1 <0>         0.1039
     22 H5          2.6065   -6.4952    0.5690 H         1 <0>         0.0779
     23 C18         0.9708   -5.9942   -0.7482 C.3       1 <0>        -0.2051
     24 C19        -0.4222   -5.4239   -0.5946 C.2       1 <0>         0.4948
     25 O1         -1.3555   -5.8903   -1.2039 O.2       1 <0>        -0.4552
     26 O2         -0.5921   -4.3792    0.2420 O.3       1 <0>        -0.3655
     27 O3          0.8387   -7.2743    1.3049 O.3       1 <0>        -0.5635
     28 O4         -2.3889    1.3590    1.4890 O.3       1 <0>        -0.3053
     29 C20        -3.5730    1.8553    1.0867 C.2       1 <0>         0.5929
     30 O5         -4.4771    1.1018    0.7875 O.2       1 <0>        -0.5282
     31 O6         -3.7554    3.1868    1.0159 O.3       1 <0>        -0.2662
     32 C21        -4.9971    3.6452    0.7061 C.ar      1 <0>         0.0901
     33 C22        -6.0056    3.6170    1.6582 C.ar      1 <0>        -0.1158
     34 C23        -7.2665    4.0839    1.3412 C.ar      1 <0>        -0.1047
     35 C24        -7.5238    4.5790    0.0761 C.ar      1 <0>        -0.1088
     36 C25        -6.5204    4.6077   -0.8748 C.ar      1 <0>        -0.1053
     37 C26        -5.2563    4.1473   -0.5608 C.ar      1 <0>        -0.1092
     38 H6          0.3782    1.9925   -0.5794 H         1 <0>         0.0510
     39 H7         -1.3973    1.8846   -0.5140 H         1 <0>         0.0492
     40 H8         -0.4513    1.9143    0.9935 H         1 <0>         0.0708
     41 H9         -2.4501   -0.2603   -0.5971 H         1 <0>         0.0743
     42 H10        -1.6871   -1.6555    0.2086 H         1 <0>         0.0993
     43 H11        -1.3283    0.3904    3.3794 H         1 <0>         0.0940
     44 H12         1.2069   -2.1978    5.0729 H         1 <0>         0.1125
     45 H13         2.0752   -1.2182    3.0974 H         1 <0>         0.1229
     46 H14         1.5925   -0.5889    0.8078 H         1 <0>         0.1155
     47 H15        -0.9514   -3.9962    4.6427 H         1 <0>         0.0632
     48 H16        -0.7179   -3.2891    6.2594 H         1 <0>         0.0578
     49 H17        -2.3305   -3.2742    5.5059 H         1 <0>         0.0595
     50 H18        -2.1700   -3.7538    3.0100 H         1 <0>         0.0673
     51 H19        -2.1378   -2.7099    1.5687 H         1 <0>         0.0737
     52 H20         0.2817   -2.4272    1.7706 H         1 <0>         0.1134
     53 H21         0.2929   -3.3297    3.3048 H         1 <0>         0.1063
     54 H22        -0.6067   -5.3300    2.0795 H         1 <0>         0.0784
     55 H23         1.9726   -4.1320    0.9672 H         1 <0>         0.0943
     56 H24         1.8226   -5.0853    2.4634 H         1 <0>         0.0954
     57 H25         1.5974   -5.2909   -1.2966 H         1 <0>         0.1173
     58 H26         0.9229   -6.9411   -1.2860 H         1 <0>         0.1062
     59 H27         0.8811   -8.1239    0.8451 H         1 <0>         0.3857
     60 H28        -5.8052    3.2301    2.6464 H         1 <0>         0.1297
     61 H29        -8.0521    4.0618    2.0820 H         1 <0>         0.1339
     62 H30        -8.5102    4.9436   -0.1699 H         1 <0>         0.1321
     63 H31        -6.7240    4.9943   -1.8625 H         1 <0>         0.1356
     64 H32        -4.4717    4.1740   -1.3025 H         1 <0>         0.1342
@<TRIPOS>BOND
     1    1    2 1
     2    1   38 1
     3    1   39 1
     4    1   40 1
     5    2    3 1
     6    2   15 1
     7    2    4 1
     8    4    5 1
     9    4   41 1
    10    4   42 1
    11    5    6 1
    12    5    7 1
    13    5   28 1
    14    7   14 1
    15    7    8 1
    16    7   43 1
    17    8    9 1
    18    8   10 1
    19    8   17 1
    20   10   11 1
    21   10   12 1
    22   10   16 1
    23   12   13 2
    24   12   44 1
    25   13   14 1
    26   13   45 1
    27   14   15 2
    28   15   46 1
    29   16   47 1
    30   16   48 1
    31   16   49 1
    32   17   18 1
    33   17   50 1
    34   17   51 1
    35   18   19 1
    36   18   52 1
    37   18   53 1
    38   19   26 1
    39   19   20 1
    40   19   54 1
    41   20   21 1
    42   20   55 1
    43   20   56 1
    44   21   22 1
    45   21   23 1
    46   21   27 1
    47   23   24 1
    48   23   57 1
    49   23   58 1
    50   24   25 2
    51   24   26 1
    52   27   59 1
    53   28   29 1
    54   29   30 2
    55   29   31 1
    56   31   32 1
    57   32   37 ar
    58   32   33 ar
    59   33   34 ar
    60   33   60 1
    61   34   35 ar
    62   34   61 1
    63   35   36 ar
    64   35   62 1
    65   36   37 ar
    66   36   63 1
    67   37   64 1
@<TRIPOS>MOLECULE
CHEMBL355889__3
   64    67     0     0     0
SMALL
USER_CHARGES

@<TRIPOS>ATOM
      1 C1         -0.4701    1.5665   -0.0420 C.3       1 <0>        -0.1349
      2 C2         -0.3778    0.0396   -0.0688 C.3       1 <0>        -0.0591
      3 H1         -0.0036   -0.2908   -1.0377 H         1 <0>         0.0825
      4 C3         -1.7628   -0.5698    0.1891 C.3       1 <0>        -0.1387
      5 C4         -2.2666   -0.0648    1.5396 C.3       1 <0>         0.1128
      6 H2         -3.2467   -0.4988    1.7374 H         1 <0>         0.0959
      7 C5         -1.3293   -0.4340    2.6651 C.3       1 <0>        -0.0484
      8 C6         -1.8097   -1.6713    3.4270 C.3       1 <0>        -0.0705
      9 H3         -2.8528   -1.5410    3.7152 H         1 <0>         0.0829
     10 C7         -0.9488   -1.8414    4.6797 C.3       1 <0>        -0.0576
     11 H4         -1.1925   -1.0503    5.3889 H         1 <0>         0.0839
     12 C8          0.5134   -1.7768    4.3587 C.2       1 <0>        -0.1301
     13 C9          1.0071   -1.2391    3.2568 C.2       1 <0>        -0.1342
     14 C10         0.0911   -0.6669    2.2431 C.2       1 <0>        -0.0672
     15 C11         0.5449   -0.4354    1.0238 C.2       1 <0>        -0.1513
     16 C12        -1.2588   -3.1968    5.3182 C.3       1 <0>        -0.1526
     17 C13        -1.6742   -2.9074    2.5356 C.3       1 <0>        -0.1198
     18 C14        -0.1925   -3.2310    2.3341 C.3       1 <0>        -0.1546
     19 C15        -0.0578   -4.5442    1.5607 C.3       1 <0>         0.1056
     20 C16         1.4189   -4.8078    1.2544 C.3       1 <0>        -0.1520
     21 C17         1.5538   -6.1436    0.5164 C.3       1 <0>         0.1083
     22 H5          0.9957   -6.1021   -0.4189 H         1 <0>         0.0660
     23 C18         0.9876   -7.2597    1.4036 C.3       1 <0>        -0.2048
     24 C19        -0.4033   -6.8575    1.8427 C.2       1 <0>         0.4907
     25 O1         -1.3328   -7.6228    1.7409 O.2       1 <0>        -0.4505
     26 O2         -0.5759   -5.6199    2.3512 O.3       1 <0>        -0.3638
     27 O3          2.9321   -6.4010    0.2404 O.3       1 <0>        -0.5557
     28 O4         -2.3903    1.3579    1.4873 O.3       1 <0>        -0.3046
     29 C20        -3.5746    1.8536    1.0850 C.2       1 <0>         0.5932
     30 O5         -4.4786    1.0997    0.7863 O.2       1 <0>        -0.5288
     31 O6         -3.7575    3.1850    1.0135 O.3       1 <0>        -0.2657
     32 C21        -4.9994    3.6429    0.7038 C.ar      1 <0>         0.0896
     33 C22        -6.0077    3.6149    1.6561 C.ar      1 <0>        -0.1156
     34 C23        -7.2688    4.0812    1.3391 C.ar      1 <0>        -0.1046
     35 C24        -7.5265    4.5756    0.0738 C.ar      1 <0>        -0.1084
     36 C25        -6.5233    4.6041   -0.8773 C.ar      1 <0>        -0.1054
     37 C26        -5.2590    4.1442   -0.5634 C.ar      1 <0>        -0.1091
     38 H6          0.3763    1.9912   -0.5818 H         1 <0>         0.0521
     39 H7         -1.3991    1.8827   -0.5164 H         1 <0>         0.0495
     40 H8         -0.4532    1.9135    0.9911 H         1 <0>         0.0713
     41 H9         -2.4515   -0.2625   -0.5980 H         1 <0>         0.0765
     42 H10        -1.6879   -1.6570    0.2083 H         1 <0>         0.0915
     43 H11        -1.3291    0.3906    3.3780 H         1 <0>         0.0956
     44 H12         1.2072   -2.1961    5.0723 H         1 <0>         0.1126
     45 H13         2.0748   -1.2171    3.0961 H         1 <0>         0.1238
     46 H14         1.5915   -0.5892    0.8063 H         1 <0>         0.1179
     47 H15        -0.9505   -3.9953    4.6434 H         1 <0>         0.0705
     48 H16        -0.7170   -3.2873    6.2597 H         1 <0>         0.0561
     49 H17        -2.3297   -3.2733    5.5065 H         1 <0>         0.0585
     50 H18        -2.1696   -3.7541    3.0108 H         1 <0>         0.0784
     51 H19        -2.1379   -2.7109    1.5689 H         1 <0>         0.0652
     52 H20         0.2816   -2.4272    1.7708 H         1 <0>         0.1220
     53 H21         0.2932   -3.3296    3.3050 H         1 <0>         0.1012
     54 H22        -0.6171   -4.4760    0.6277 H         1 <0>         0.0732
     55 H23         1.8093   -4.0055    0.6283 H         1 <0>         0.0969
     56 H24         1.9821   -4.8489    2.1867 H         1 <0>         0.0899
     57 H25         0.9397   -8.1901    0.8378 H         1 <0>         0.1059
     58 H26         1.6248   -7.3930    2.2778 H         1 <0>         0.1171
     59 H27         3.0910   -7.2327   -0.2265 H         1 <0>         0.3849
     60 H28        -5.8070    3.2285    2.6445 H         1 <0>         0.1299
     61 H29        -8.0542    4.0593    2.0801 H         1 <0>         0.1341
     62 H30        -8.5131    4.9397   -0.1722 H         1 <0>         0.1323
     63 H31        -6.7272    4.9901   -1.8651 H         1 <0>         0.1356
     64 H32        -4.4746    4.1708   -1.3052 H         1 <0>         0.1342
@<TRIPOS>BOND
     1    1    2 1
     2    1   38 1
     3    1   39 1
     4    1   40 1
     5    2    3 1
     6    2   15 1
     7    2    4 1
     8    4    5 1
     9    4   41 1
    10    4   42 1
    11    5    6 1
    12    5    7 1
    13    5   28 1
    14    7   14 1
    15    7    8 1
    16    7   43 1
    17    8    9 1
    18    8   10 1
    19    8   17 1
    20   10   11 1
    21   10   12 1
    22   10   16 1
    23   12   13 2
    24   12   44 1
    25   13   14 1
    26   13   45 1
    27   14   15 2
    28   15   46 1
    29   16   47 1
    30   16   48 1
    31   16   49 1
    32   17   18 1
    33   17   50 1
    34   17   51 1
    35   18   19 1
    36   18   52 1
    37   18   53 1
    38   19   26 1
    39   19   20 1
    40   19   54 1
    41   20   21 1
    42   20   55 1
    43   20   56 1
    44   21   22 1
    45   21   23 1
    46   21   27 1
    47   23   24 1
    48   23   57 1
    49   23   58 1
    50   24   25 2
    51   24   26 1
    52   27   59 1
    53   28   29 1
    54   29   30 2
    55   29   31 1
    56   31   32 1
    57   32   37 ar
    58   32   33 ar
    59   33   34 ar
    60   33   60 1
    61   34   35 ar
    62   34   61 1
    63   35   36 ar
    64   35   62 1
    65   36   37 ar
    66   36   63 1
    67   37   64 1
@<TRIPOS>MOLECULE
CHEMBL60218
   52    55     0     0     0
SMALL
USER_CHARGES

@<TRIPOS>ATOM
      1 C1         -2.4506   -0.9440   -0.6355 C.3       1 <0>         0.0858
      2 N1         -1.0336   -1.0602   -0.2822 N.pl3     1 <0>        -0.3697
      3 C2          0.0417   -0.9235   -1.1104 C.2       1 <0>         0.2893
      4 N2          1.1193   -1.1078   -0.3718 N.2       1 <0>        -0.3118
      5 N3          0.7932   -1.3475    0.8467 N.2       1 <0>        -0.0393
      6 N4         -0.4879   -1.3308    0.9849 N.2       1 <0>        -0.0762
      7 C3          0.0064   -0.6273   -2.5532 C.2       1 <0>        -0.0253
      8 C4         -0.1285   -1.6568   -3.4677 C.2       1 <0>         0.0383
      9 C5         -0.2371   -3.0520   -2.9978 C.ar      1 <0>        -0.0873
     10 C6          0.8347   -3.6537   -2.3331 C.ar      1 <0>        -0.0641
     11 C7          0.7274   -4.9569   -1.8966 C.ar      1 <0>        -0.1504
     12 C8         -0.4407   -5.6706   -2.1164 C.ar      1 <0>         0.1127
     13 C9         -1.5072   -5.0791   -2.7757 C.ar      1 <0>        -0.1537
     14 C10        -1.4141   -3.7743   -3.2109 C.ar      1 <0>        -0.0673
     15 F1         -0.5399   -6.9476   -1.6868 F         1 <0>        -0.1343
     16 C11        -0.1638   -1.3599   -4.9134 C.ar      1 <0>        -0.0707
     17 C12        -1.2168   -0.6152   -5.4510 C.ar      1 <0>        -0.0700
     18 C13        -1.2444   -0.3412   -6.8018 C.ar      1 <0>        -0.1507
     19 C14        -0.2304   -0.8033   -7.6265 C.ar      1 <0>         0.1125
     20 C15         0.8167   -1.5431   -7.0989 C.ar      1 <0>        -0.1494
     21 C16         0.8586   -1.8177   -5.7486 C.ar      1 <0>        -0.0603
     22 F2         -0.2629   -0.5321   -8.9495 F         1 <0>        -0.1351
     23 C17         0.1146    0.7630   -3.0214 C.2       1 <0>        -0.0906
     24 C18         0.3332    1.7439   -2.1490 C.2       1 <0>        -0.1387
     25 C19         0.5670    3.1497   -2.6387 C.3       1 <0>         0.1447
     26 C20        -0.4359    4.0962   -1.9736 C.3       1 <0>        -0.1483
     27 C21        -0.2224    5.5172   -2.5049 C.3       1 <0>         0.1043
     28 H1         -0.9432    6.1918   -2.0431 H         1 <0>         0.0823
     29 C22        -0.4231    5.5135   -4.0257 C.3       1 <0>        -0.2042
     30 C23         0.4449    4.4240   -4.6165 C.2       1 <0>         0.4971
     31 O1          1.1652    4.6467   -5.5607 O.2       1 <0>        -0.4463
     32 O2          0.3911    3.1966   -4.0591 O.3       1 <0>        -0.3685
     33 O3          1.1041    5.9495   -2.1958 O.3       1 <0>        -0.5633
     34 H2         -2.7912    0.0731   -0.4415 H         1 <0>         0.0946
     35 H3         -2.5817   -1.1757   -1.6925 H         1 <0>         0.0991
     36 H4         -3.0332   -1.6430   -0.0354 H         1 <0>         0.1043
     37 H5          1.7454   -3.0990   -2.1619 H         1 <0>         0.1413
     38 H6          1.5551   -5.4231   -1.3827 H         1 <0>         0.1416
     39 H7         -2.4145   -5.6401   -2.9444 H         1 <0>         0.1414
     40 H8         -2.2475   -3.3129   -3.7198 H         1 <0>         0.1370
     41 H9         -2.0077   -0.2552   -4.8096 H         1 <0>         0.1363
     42 H10        -2.0577    0.2344   -7.2184 H         1 <0>         0.1405
     43 H11         1.6037   -1.9008   -7.7463 H         1 <0>         0.1415
     44 H12         1.6775   -2.3897   -5.3379 H         1 <0>         0.1373
     45 H13         0.0167    0.9877   -4.0732 H         1 <0>         0.1510
     46 H14         0.3430    1.5323   -1.0899 H         1 <0>         0.1258
     47 H15         1.5817    3.4586   -2.3873 H         1 <0>         0.1022
     48 H16        -1.4505    3.7707   -2.2033 H         1 <0>         0.0975
     49 H17        -0.2856    4.0851   -0.8941 H         1 <0>         0.0995
     50 H18        -1.4696    5.3158   -4.2577 H         1 <0>         0.1194
     51 H19        -0.1311    6.4796   -4.4373 H         1 <0>         0.1099
     52 H20         1.3083    6.8431   -2.5038 H         1 <0>         0.3882
@<TRIPOS>BOND
     1    1    2 1
     2    1   34 1
     3    1   35 1
     4    1   36 1
     5    2    6 1
     6    2    3 1
     7    3    4 2
     8    3    7 1
     9    4    5 1
    10    5    6 2
    11    7    8 2
    12    7   23 1
    13    8    9 1
    14    8   16 1
    15    9   14 ar
    16    9   10 ar
    17   10   11 ar
    18   10   37 1
    19   11   12 ar
    20   11   38 1
    21   12   13 ar
    22   12   15 1
    23   13   14 ar
    24   13   39 1
    25   14   40 1
    26   16   21 ar
    27   16   17 ar
    28   17   18 ar
    29   17   41 1
    30   18   19 ar
    31   18   42 1
    32   19   20 ar
    33   19   22 1
    34   20   21 ar
    35   20   43 1
    36   21   44 1
    37   23   24 2
    38   23   45 1
    39   24   25 1
    40   24   46 1
    41   25   32 1
    42   25   26 1
    43   25   47 1
    44   26   27 1
    45   26   48 1
    46   26   49 1
    47   27   28 1
    48   27   29 1
    49   27   33 1
    50   29   30 1
    51   29   50 1
    52   29   51 1
    53   30   31 2
    54   30   32 1
    55   33   52 1
@<TRIPOS>MOLECULE
CHEMBL60218__1
   52    55     0     0     0
SMALL
USER_CHARGES

@<TRIPOS>ATOM
      1 C1         -2.4260   -0.9010   -0.6021 C.3       1 <0>         0.0852
      2 N1         -1.0065   -1.0432   -0.2685 N.pl3     1 <0>        -0.3694
      3 C2          0.0594   -0.9254   -1.1115 C.2       1 <0>         0.2867
      4 N2          1.1437   -1.1299   -0.3881 N.2       1 <0>        -0.3088
      5 N3          0.8302   -1.3644    0.8347 N.2       1 <0>        -0.0386
      6 N4         -0.4483   -1.3245    0.9908 N.2       1 <0>        -0.0748
      7 C3          0.0095   -0.6276   -2.5535 C.2       1 <0>        -0.0253
      8 C4         -0.1362   -1.6560   -3.4677 C.2       1 <0>         0.0446
      9 C5         -0.2417   -3.0516   -2.9981 C.ar      1 <0>        -0.0903
     10 C6          0.8362   -3.6554   -2.3453 C.ar      1 <0>        -0.0627
     11 C7          0.7318   -4.9589   -1.9091 C.ar      1 <0>        -0.1504
     12 C8         -0.4394   -5.6708   -2.1175 C.ar      1 <0>         0.1142
     13 C9         -1.5120   -5.0773   -2.7650 C.ar      1 <0>        -0.1540
     14 C10        -1.4218   -3.7722   -3.1997 C.ar      1 <0>        -0.0662
     15 F1         -0.5358   -6.9482   -1.6882 F         1 <0>        -0.1338
     16 C11        -0.1862   -1.3575   -4.9126 C.ar      1 <0>        -0.0728
     17 C12        -1.2438   -0.6109   -5.4384 C.ar      1 <0>        -0.0739
     18 C13        -1.2851   -0.3354   -6.7886 C.ar      1 <0>        -0.1521
     19 C14        -0.2803   -0.7980   -7.6243 C.ar      1 <0>         0.1122
     20 C15         0.7713   -1.5396   -7.1085 C.ar      1 <0>        -0.1488
     21 C16         0.8269   -1.8158   -5.7590 C.ar      1 <0>        -0.0592
     22 F2         -0.3263   -0.5253   -8.9467 F         1 <0>        -0.1344
     23 C17         0.1146    0.7630   -3.0214 C.2       1 <0>        -0.0845
     24 C18         0.3332    1.7439   -2.1490 C.2       1 <0>        -0.1263
     25 C19         0.5670    3.1497   -2.6387 C.3       1 <0>         0.1445
     26 C20        -0.5069    4.0768   -2.0632 C.3       1 <0>        -0.1531
     27 C21        -0.2420    5.5118   -2.5297 C.3       1 <0>         0.1100
     28 H1         -0.2777    5.5544   -3.6182 H         1 <0>         0.0699
     29 C22         1.1479    5.9426   -2.0439 C.3       1 <0>        -0.2053
     30 C23         2.1471    4.8890   -2.4691 C.2       1 <0>         0.4920
     31 O1          3.1747    5.1957   -3.0256 O.2       1 <0>        -0.4425
     32 O2          1.8576    3.5972   -2.2090 O.3       1 <0>        -0.3604
     33 O3         -1.2340    6.3835   -1.9837 O.3       1 <0>        -0.5548
     34 H2         -2.7442    0.1231   -0.4069 H         1 <0>         0.0952
     35 H3         -2.5766   -1.1336   -1.6563 H         1 <0>         0.0990
     36 H4         -3.0132   -1.5866    0.0088 H         1 <0>         0.1048
     37 H5          1.7494   -3.1020   -2.1830 H         1 <0>         0.1421
     38 H6          1.5642   -5.4266   -1.4044 H         1 <0>         0.1421
     39 H7         -2.4218   -5.6369   -2.9248 H         1 <0>         0.1418
     40 H8         -2.2598   -3.3092   -3.6995 H         1 <0>         0.1372
     41 H9         -2.0275   -0.2506   -4.7885 H         1 <0>         0.1382
     42 H10        -2.1020    0.2416   -7.1961 H         1 <0>         0.1422
     43 H11         1.5510   -1.8976   -7.7644 H         1 <0>         0.1424
     44 H12         1.6493   -2.3892   -5.3574 H         1 <0>         0.1386
     45 H13         0.0144    0.9880   -4.0729 H         1 <0>         0.1429
     46 H14         0.3430    1.5323   -1.0899 H         1 <0>         0.1188
     47 H15         0.5193    3.1684   -3.7275 H         1 <0>         0.0883
     48 H16        -1.4887    3.7564   -2.4119 H         1 <0>         0.1011
     49 H17        -0.4764    4.0368   -0.9744 H         1 <0>         0.0924
     50 H18         1.4123    6.9012   -2.4902 H         1 <0>         0.1100
     51 H19         1.1464    6.0304   -0.9574 H         1 <0>         0.1192
     52 H20        -1.1269    7.3100   -2.2388 H         1 <0>         0.3872
@<TRIPOS>BOND
     1    1    2 1
     2    1   34 1
     3    1   35 1
     4    1   36 1
     5    2    6 1
     6    2    3 1
     7    3    4 2
     8    3    7 1
     9    4    5 1
    10    5    6 2
    11    7    8 2
    12    7   23 1
    13    8    9 1
    14    8   16 1
    15    9   14 ar
    16    9   10 ar
    17   10   11 ar
    18   10   37 1
    19   11   12 ar
    20   11   38 1
    21   12   13 ar
    22   12   15 1
    23   13   14 ar
    24   13   39 1
    25   14   40 1
    26   16   21 ar
    27   16   17 ar
    28   17   18 ar
    29   17   41 1
    30   18   19 ar
    31   18   42 1
    32   19   20 ar
    33   19   22 1
    34   20   21 ar
    35   20   43 1
    36   21   44 1
    37   23   24 2
    38   23   45 1
    39   24   25 1
    40   24   46 1
    41   25   32 1
    42   25   26 1
    43   25   47 1
    44   26   27 1
    45   26   48 1
    46   26   49 1
    47   27   28 1
    48   27   29 1
    49   27   33 1
    50   29   30 1
    51   29   50 1
    52   29   51 1
    53   30   31 2
    54   30   32 1
    55   33   52 1
@<TRIPOS>MOLECULE
CHEMBL121965
   65    68     0     0     0
SMALL
USER_CHARGES

@<TRIPOS>ATOM
      1 C1         -0.0167    1.3781    0.0096 C.ar      1 <0>        -0.1291
      2 C2          1.1709    2.0855    0.0021 C.ar      1 <0>        -0.1188
      3 C3          2.3773    1.4107   -0.0130 C.ar      1 <0>        -0.1155
      4 C4          2.3960    0.0285   -0.0201 C.ar      1 <0>        -0.0732
      5 C5          1.2084   -0.6789   -0.0117 C.ar      1 <0>        -0.1209
      6 C6          0.0021   -0.0041    0.0020 C.ar      1 <0>        -0.1199
      7 C7          3.7112   -0.7071   -0.0376 C.3       1 <0>        -0.0939
      8 C8          4.1714   -0.9633    1.3989 C.3       1 <0>        -0.1004
      9 C9          5.5066   -1.7102    1.3812 C.3       1 <0>        -0.0056
     10 C10         5.9265   -2.0529    2.8157 C.3       1 <0>        -0.1124
     11 C11         7.3624   -2.5822    2.8219 C.3       1 <0>        -0.1180
     12 C12         8.3377   -1.4327    2.5385 C.3       1 <0>        -0.0402
     13 C13         7.8636   -0.7057    1.3051 C.2       1 <0>        -0.2120
     14 C14         6.5739   -0.8312    0.7734 C.2       1 <0>         0.0958
     15 N1          6.4858   -0.0804   -0.2885 N.2       1 <0>        -0.2778
     16 N2          7.7151    0.5648   -0.4878 N.pl3     1 <0>        -0.3287
     17 C15         8.5633    0.1670    0.5112 C.2       1 <0>         0.1265
     18 C16         9.9600    0.5945    0.6974 C.2       1 <0>        -0.1199
     19 C17        10.8125    0.5408   -0.3204 C.2       1 <0>        -0.1404
     20 C18        12.2419    0.9783   -0.1299 C.3       1 <0>         0.1411
     21 H1         12.4368    1.8594   -0.7413 H         1 <0>         0.1133
     22 C19        13.1820   -0.1529   -0.5512 C.3       1 <0>        -0.1814
     23 C20        14.6307    0.3333   -0.4764 C.3       1 <0>         0.1379
     24 H2         14.7421    1.2369   -1.0756 H         1 <0>         0.0941
     25 C21        15.5622   -0.7542   -1.0154 C.3       1 <0>        -0.2195
     26 C22        16.9747   -0.2308   -1.0564 C.2       1 <0>         0.4906
     27 O1         17.2143    0.9067   -0.6886 O.co2     1 <0>        -0.6810
     28 O2         17.8780   -0.9447   -1.4575 O.co2     1 <0>        -0.7125
     29 O3         14.9678    0.6185    0.8827 O.3       1 <0>        -0.5277
     30 O4         12.4639    1.2946    1.2459 O.3       1 <0>        -0.5365
     31 C23         8.0209    1.4568   -1.5242 C.ar      1 <0>         0.1483
     32 C24         8.8758    2.5260   -1.2917 C.ar      1 <0>        -0.0961
     33 C25         9.1763    3.4037   -2.3146 C.ar      1 <0>        -0.1296
     34 C26         8.6257    3.2181   -3.5717 C.ar      1 <0>         0.0973
     35 C27         7.7724    2.1527   -3.8055 C.ar      1 <0>        -0.1359
     36 C28         7.4739    1.2694   -2.7868 C.ar      1 <0>        -0.0862
     37 F1          8.9209    4.0779   -4.5711 F         1 <0>        -0.1345
     38 H3         -0.9591    1.9053    0.0259 H         1 <0>         0.1185
     39 H4          1.1563    3.1654    0.0076 H         1 <0>         0.1191
     40 H5          3.3051    1.9634   -0.0196 H         1 <0>         0.1190
     41 H6          1.2231   -1.7588   -0.0176 H         1 <0>         0.1196
     42 H7         -0.9258   -0.5567    0.0082 H         1 <0>         0.1192
     43 H8          3.5884   -1.6586   -0.5549 H         1 <0>         0.0673
     44 H9          4.4573   -0.1052   -0.5563 H         1 <0>         0.1012
     45 H10         4.2941   -0.0118    1.9163 H         1 <0>         0.0648
     46 H11         3.4252   -1.5652    1.9176 H         1 <0>         0.0693
     47 H12         5.4080   -2.6255    0.7977 H         1 <0>         0.0906
     48 H13         5.8677   -1.1574    3.4343 H         1 <0>         0.0684
     49 H14         5.2578   -2.8143    3.2171 H         1 <0>         0.0721
     50 H15         7.5852   -3.0150    3.7971 H         1 <0>         0.0695
     51 H16         7.4702   -3.3473    2.0530 H         1 <0>         0.0645
     52 H17         8.3543   -0.7472    3.3858 H         1 <0>         0.0717
     53 H18         9.3375   -1.8322    2.3684 H         1 <0>         0.0724
     54 H19        10.2915    0.9516    1.6612 H         1 <0>         0.1470
     55 H20        10.4809    0.1837   -1.2843 H         1 <0>         0.1137
     56 H21        13.0492   -1.0036    0.1172 H         1 <0>         0.0658
     57 H22        12.9523   -0.4545   -1.5732 H         1 <0>         0.0757
     58 H23        15.5169   -1.6270   -0.3641 H         1 <0>         0.0569
     59 H24        15.2493   -1.0348   -2.0212 H         1 <0>         0.0612
     60 H25        14.8911   -0.1421    1.4749 H         1 <0>         0.3506
     61 H26        12.3090    0.5551    1.8494 H         1 <0>         0.3680
     62 H27         9.3052    2.6712   -0.3114 H         1 <0>         0.1441
     63 H28         9.8410    4.2356   -2.1341 H         1 <0>         0.1474
     64 H29         7.3437    2.0099   -4.7865 H         1 <0>         0.1438
     65 H30         6.8123    0.4359   -2.9708 H         1 <0>         0.1413
@<TRIPOS>BOND
     1    1    6 ar
     2    1    2 ar
     3    1   38 1
     4    2    3 ar
     5    2   39 1
     6    3    4 ar
     7    3   40 1
     8    4    5 ar
     9    4    7 1
    10    5    6 ar
    11    5   41 1
    12    6   42 1
    13    7    8 1
    14    7   43 1
    15    7   44 1
    16    8    9 1
    17    8   45 1
    18    8   46 1
    19    9   14 1
    20    9   10 1
    21    9   47 1
    22   10   11 1
    23   10   48 1
    24   10   49 1
    25   11   12 1
    26   11   50 1
    27   11   51 1
    28   12   13 1
    29   12   52 1
    30   12   53 1
    31   13   17 2
    32   13   14 1
    33   14   15 2
    34   15   16 1
    35   16   17 1
    36   16   31 1
    37   17   18 1
    38   18   19 2
    39   18   54 1
    40   19   20 1
    41   19   55 1
    42   20   21 1
    43   20   22 1
    44   20   30 1
    45   22   23 1
    46   22   56 1
    47   22   57 1
    48   23   24 1
    49   23   25 1
    50   23   29 1
    51   25   26 1
    52   25   58 1
    53   25   59 1
    54   26   27 2
    55   26   28 1
    56   29   60 1
    57   30   61 1
    58   31   36 ar
    59   31   32 ar
    60   32   33 ar
    61   32   62 1
    62   33   34 ar
    63   33   63 1
    64   34   35 ar
    65   34   37 1
    66   35   36 ar
    67   35   64 1
    68   36   65 1
@<TRIPOS>MOLECULE
CHEMBL121965__1
   65    68     0     0     0
SMALL
USER_CHARGES

@<TRIPOS>ATOM
      1 C1         -0.0167    1.3781    0.0096 C.ar      1 <0>        -0.1290
      2 C2          1.1709    2.0855    0.0021 C.ar      1 <0>        -0.1196
      3 C3          2.3773    1.4107   -0.0130 C.ar      1 <0>        -0.1210
      4 C4          2.3960    0.0285   -0.0201 C.ar      1 <0>        -0.0733
      5 C5          1.2084   -0.6789   -0.0117 C.ar      1 <0>        -0.1161
      6 C6          0.0021   -0.0041    0.0020 C.ar      1 <0>        -0.1183
      7 C7          3.7112   -0.7071   -0.0376 C.3       1 <0>        -0.0936
      8 C8          4.1714   -0.9633    1.3989 C.3       1 <0>        -0.1009
      9 C9          5.5066   -1.7102    1.3812 C.3       1 <0>        -0.0053
     10 C10         6.0195   -1.8868    2.8155 C.3       1 <0>        -0.1129
     11 C11         7.2220   -2.8332    2.8221 C.3       1 <0>        -0.1177
     12 C12         6.7527   -4.2663    2.5410 C.3       1 <0>        -0.0401
     13 C13         5.8841   -4.2444    1.3081 C.2       1 <0>        -0.2117
     14 C14         5.3157   -3.0805    0.7754 C.2       1 <0>         0.0956
     15 N1          4.6285   -3.3999   -0.2852 N.2       1 <0>        -0.2776
     16 N2          4.7216   -4.7853   -0.4825 N.pl3     1 <0>        -0.3288
     17 C15         5.5056   -5.2985    0.5164 C.2       1 <0>         0.1264
     18 C16         5.8722   -6.7121    0.7043 C.2       1 <0>        -0.1196
     19 C17         4.9313   -7.6503    0.6884 C.2       1 <0>        -0.1410
     20 C18         5.3066   -9.0971    0.8808 C.3       1 <0>         0.1413
     21 H1          5.0888   -9.6533   -0.0310 H         1 <0>         0.1133
     22 C19         4.4995   -9.6834    2.0409 C.3       1 <0>        -0.1814
     23 C20         4.7875  -11.1816    2.1566 C.3       1 <0>         0.1379
     24 H2          4.5878  -11.6649    1.2003 H         1 <0>         0.0940
     25 C21         3.8887  -11.7919    3.2339 C.3       1 <0>        -0.2195
     26 C22         4.0835  -13.2860    3.2635 C.2       1 <0>         0.4906
     27 O1          4.8685  -13.8137    2.4942 O.co2     1 <0>        -0.6809
     28 O2          3.4562  -13.9670    4.0567 O.co2     1 <0>        -0.7124
     29 O3          6.1576  -11.3772    2.5124 O.3       1 <0>        -0.5277
     30 O4          6.7017   -9.1923    1.1751 O.3       1 <0>        -0.5366
     31 C23         4.1197   -5.5143   -1.5168 C.ar      1 <0>         0.1486
     32 C24         4.7674   -6.6166   -2.0586 C.ar      1 <0>        -0.0960
     33 C25         4.1723   -7.3340   -3.0775 C.ar      1 <0>        -0.1294
     34 C26         2.9304   -6.9547   -3.5590 C.ar      1 <0>         0.0972
     35 C27         2.2830   -5.8554   -3.0203 C.ar      1 <0>        -0.1358
     36 C28         2.8722   -5.1387   -1.9973 C.ar      1 <0>        -0.0863
     37 F1          2.3499   -7.6579   -4.5559 F         1 <0>        -0.1345
     38 H3         -0.9591    1.9053    0.0259 H         1 <0>         0.1187
     39 H4          1.1563    3.1654    0.0076 H         1 <0>         0.1192
     40 H5          3.3051    1.9634   -0.0196 H         1 <0>         0.1195
     41 H6          1.2231   -1.7588   -0.0176 H         1 <0>         0.1186
     42 H7         -0.9258   -0.5567    0.0082 H         1 <0>         0.1195
     43 H8          3.5884   -1.6586   -0.5549 H         1 <0>         0.1007
     44 H9          4.4573   -0.1052   -0.5563 H         1 <0>         0.0673
     45 H10         4.2941   -0.0118    1.9163 H         1 <0>         0.0695
     46 H11         3.4252   -1.5652    1.9176 H         1 <0>         0.0649
     47 H12         6.2345   -1.1478    0.7964 H         1 <0>         0.0906
     48 H13         6.3186   -0.9179    3.2154 H         1 <0>         0.0722
     49 H14         5.2261   -2.3045    3.4353 H         1 <0>         0.0685
     50 H15         7.9298   -2.5257    2.0523 H         1 <0>         0.0645
     51 H16         7.7081   -2.7953    3.7969 H         1 <0>         0.0694
     52 H17         7.6163   -4.9093    2.3711 H         1 <0>         0.0726
     53 H18         6.1779   -4.6381    3.3892 H         1 <0>         0.0714
     54 H19         6.9058   -6.9865    0.8551 H         1 <0>         0.1471
     55 H20         3.8977   -7.3759    0.5376 H         1 <0>         0.1135
     56 H21         4.7829   -9.1862    2.9685 H         1 <0>         0.0658
     57 H22         3.4360   -9.5309    1.8572 H         1 <0>         0.0756
     58 H23         4.1497  -11.3722    4.2054 H         1 <0>         0.0568
     59 H24         2.8465  -11.5658    3.0086 H         1 <0>         0.0611
     60 H25         6.4068  -10.9728    3.3546 H         1 <0>         0.3506
     61 H26         6.9680   -8.7196    1.9755 H         1 <0>         0.3680
     62 H27         5.7360   -6.9125   -1.6836 H         1 <0>         0.1442
     63 H28         4.6759   -8.1912   -3.4995 H         1 <0>         0.1475
     64 H29         1.3148   -5.5610   -3.3974 H         1 <0>         0.1438
     65 H30         2.3649   -4.2844   -1.5741 H         1 <0>         0.1405
@<TRIPOS>BOND
     1    1    6 ar
     2    1    2 ar
     3    1   38 1
     4    2    3 ar
     5    2   39 1
     6    3    4 ar
     7    3   40 1
     8    4    5 ar
     9    4    7 1
    10    5    6 ar
    11    5   41 1
    12    6   42 1
    13    7    8 1
    14    7   43 1
    15    7   44 1
    16    8    9 1
    17    8   45 1
    18    8   46 1
    19    9   14 1
    20    9   10 1
    21    9   47 1
    22   10   11 1
    23   10   48 1
    24   10   49 1
    25   11   12 1
    26   11   50 1
    27   11   51 1
    28   12   13 1
    29   12   52 1
    30   12   53 1
    31   13   17 2
    32   13   14 1
    33   14   15 2
    34   15   16 1
    35   16   17 1
    36   16   31 1
    37   17   18 1
    38   18   19 2
    39   18   54 1
    40   19   20 1
    41   19   55 1
    42   20   21 1
    43   20   22 1
    44   20   30 1
    45   22   23 1
    46   22   56 1
    47   22   57 1
    48   23   24 1
    49   23   25 1
    50   23   29 1
    51   25   26 1
    52   25   58 1
    53   25   59 1
    54   26   27 2
    55   26   28 1
    56   29   60 1
    57   30   61 1
    58   31   36 ar
    59   31   32 ar
    60   32   33 ar
    61   32   62 1
    62   33   34 ar
    63   33   63 1
    64   34   35 ar
    65   34   37 1
    66   35   36 ar
    67   35   64 1
    68   36   65 1
@<TRIPOS>MOLECULE
CHEMBL121658
   49    51     0     0     0
SMALL
USER_CHARGES

@<TRIPOS>ATOM
      1 C1         -0.0187    1.5258    0.0104 C.3       1 <0>        -0.1542
      2 C2          0.0021   -0.0041    0.0020 C.3       1 <0>        -0.0314
      3 C3          0.7421   -0.5109    1.2415 C.3       1 <0>        -0.1516
      4 C4         -1.4117   -0.5257    0.0127 C.2       1 <0>         0.0908
      5 C5         -2.3347   -0.2850    0.9693 C.2       1 <0>        -0.1423
      6 C6         -3.5158   -0.9518    0.6007 C.2       1 <0>        -0.1221
      7 C7         -3.2727   -1.5847   -0.5817 C.2       1 <0>         0.0962
      8 N1         -1.9772   -1.3158   -0.9450 N.pl3     1 <0>        -0.4206
      9 C8         -1.3113   -1.7996   -2.1569 C.3       1 <0>         0.0940
     10 C9         -0.6402   -3.1439   -1.8680 C.3       1 <0>        -0.1313
     11 C10         0.0553   -3.6492   -3.1336 C.3       1 <0>         0.1140
     12 H1         -0.6632   -3.6895   -3.9523 H         1 <0>         0.0905
     13 C11         0.6218   -5.0490   -2.8814 C.3       1 <0>        -0.1519
     14 C12         1.3531   -5.5346   -4.1370 C.3       1 <0>         0.1046
     15 H2          1.7690   -6.5259   -3.9569 H         1 <0>         0.0823
     16 C13         2.4864   -4.5531   -4.4617 C.3       1 <0>        -0.2046
     17 C14         1.9070   -3.1560   -4.5041 C.2       1 <0>         0.4973
     18 O1          2.1385   -2.4151   -5.4300 O.2       1 <0>        -0.4486
     19 O2          1.1241   -2.7609   -3.4789 O.3       1 <0>        -0.3713
     20 O3          0.4373   -5.5915   -5.2325 O.3       1 <0>        -0.5640
     21 C15        -4.2361   -2.4100   -1.3411 C.ar      1 <0>        -0.0403
     22 C16        -4.3542   -2.2551   -2.7232 C.ar      1 <0>        -0.0803
     23 C17        -5.2542   -3.0280   -3.4268 C.ar      1 <0>        -0.1490
     24 C18        -6.0404   -3.9569   -2.7640 C.ar      1 <0>         0.1103
     25 C19        -5.9276   -4.1144   -1.3919 C.ar      1 <0>        -0.1471
     26 C20        -5.0267   -3.3508   -0.6793 C.ar      1 <0>        -0.0586
     27 F1         -6.9204   -4.7113   -3.4580 F         1 <0>        -0.1351
     28 Br1        -5.1412   -0.9684    1.5669 Br        1 <0>        -0.0092
     29 Br2        -2.0828    0.7601    2.5250 Br        1 <0>        -0.0077
     30 H3          1.0039    1.9031    0.0027 H         1 <0>         0.0667
     31 H4         -0.5459    1.8868   -0.8726 H         1 <0>         0.0562
     32 H5         -0.5289    1.8773    0.9072 H         1 <0>         0.0727
     33 H6          0.5123   -0.3556   -0.8948 H         1 <0>         0.0835
     34 H7          0.2319   -0.1594    2.1383 H         1 <0>         0.0723
     35 H8          0.7568   -1.6008    1.2356 H         1 <0>         0.0552
     36 H9          1.7647   -0.1336    1.2338 H         1 <0>         0.0663
     37 H10        -2.0475   -1.9243   -2.9509 H         1 <0>         0.1010
     38 H11        -0.5576   -1.0772   -2.4703 H         1 <0>         0.1081
     39 H12         0.0960   -3.0193   -1.0739 H         1 <0>         0.0889
     40 H13        -1.3939   -3.8663   -1.5545 H         1 <0>         0.0977
     41 H14         1.3197   -5.0135   -2.0449 H         1 <0>         0.0982
     42 H15        -0.1928   -5.7342   -2.6471 H         1 <0>         0.1002
     43 H16         3.2537   -4.6094   -3.6895 H         1 <0>         0.1199
     44 H17         2.9205   -4.8005   -5.4304 H         1 <0>         0.1098
     45 H18         0.8341   -5.8918   -6.0616 H         1 <0>         0.3881
     46 H19        -3.7422   -1.5312   -3.2407 H         1 <0>         0.1326
     47 H20        -5.3466   -2.9087   -4.4962 H         1 <0>         0.1409
     48 H21        -6.5430   -4.8396   -0.8802 H         1 <0>         0.1426
     49 H22        -4.9364   -3.4776    0.3894 H         1 <0>         0.1401
@<TRIPOS>BOND
     1    1    2 1
     2    1   30 1
     3    1   31 1
     4    1   32 1
     5    2    3 1
     6    2    4 1
     7    2   33 1
     8    3   34 1
     9    3   35 1
    10    3   36 1
    11    4    8 1
    12    4    5 2
    13    5    6 1
    14    5   29 1
    15    6    7 2
    16    6   28 1
    17    7    8 1
    18    7   21 1
    19    8    9 1
    20    9   10 1
    21    9   37 1
    22    9   38 1
    23   10   11 1
    24   10   39 1
    25   10   40 1
    26   11   12 1
    27   11   19 1
    28   11   13 1
    29   13   14 1
    30   13   41 1
    31   13   42 1
    32   14   15 1
    33   14   16 1
    34   14   20 1
    35   16   17 1
    36   16   43 1
    37   16   44 1
    38   17   18 2
    39   17   19 1
    40   20   45 1
    41   21   26 ar
    42   21   22 ar
    43   22   23 ar
    44   22   46 1
    45   23   24 ar
    46   23   47 1
    47   24   25 ar
    48   24   27 1
    49   25   26 ar
    50   25   48 1
    51   26   49 1
@<TRIPOS>MOLECULE
CHEMBL1164546
   72    73     0     0     0
SMALL
USER_CHARGES

@<TRIPOS>ATOM
      1 C1         -0.0187    1.5258    0.0104 C.3       1 <0>        -0.1657
      2 C2          0.0021   -0.0041    0.0020 C.3       1 <0>         0.0953
      3 H1         -1.0205   -0.3814    0.0098 H         1 <0>         0.1132
      4 C3          0.7421   -0.5109    1.2415 C.3       1 <0>         0.0985
      5 H2          0.1838   -0.2350    2.1361 H         1 <0>         0.1223
      6 C4          0.8700   -2.0108    1.1719 C.2       1 <0>         0.5215
      7 O1          1.9678   -2.5262    1.1664 O.2       1 <0>        -0.5374
      8 N1         -0.2356   -2.7796    1.1157 N.am      1 <0>        -0.7017
      9 C5         -0.1113   -4.2377    1.0480 C.3       1 <0>         0.1005
     10 C6         -1.4841   -4.8570    0.9943 C.2       1 <0>         0.4967
     11 O2         -2.4694   -4.1500    1.0110 O.2       1 <0>        -0.5613
     12 N2         -1.6170   -6.1965    0.9278 N.am      1 <0>        -0.6877
     13 C7         -2.9515   -6.7986    0.8756 C.3       1 <0>         0.0494
     14 C8         -2.8236   -8.2985    0.8060 C.2       1 <0>         0.4894
     15 O3         -1.7200   -8.8166    0.8005 O.co2     1 <0>        -0.6900
     16 O4         -3.8238   -8.9939    0.7552 O.co2     1 <0>        -0.6843
     17 N3          2.0766    0.0911    1.2937 N.am      1 <0>        -0.7109
     18 C9          2.2460    1.3075    1.8489 C.2       1 <0>         0.5105
     19 O5          1.2935    1.9037    2.3053 O.2       1 <0>        -0.5115
     20 C10         3.6188    1.9268    1.9026 C.3       1 <0>         0.1242
     21 H3          4.0161    2.0352    0.8934 H         1 <0>         0.1037
     22 C11         4.5611    1.0418    2.7455 C.3       1 <0>        -0.1280
     23 C12         5.4152    2.0814    3.5183 C.3       1 <0>        -0.1308
     24 C13         4.3795    3.2037    3.7777 C.3       1 <0>         0.0917
     25 N4          3.5489    3.2418    2.5564 N.am      1 <0>        -0.5977
     26 C14         2.8447    4.3025    2.1140 C.2       1 <0>         0.5314
     27 O6          2.1958    4.2164    1.0931 O.2       1 <0>        -0.5042
     28 C15         2.8638    5.5953    2.8881 C.3       1 <0>         0.1462
     29 H4          3.8721    5.7831    3.2570 H         1 <0>         0.1195
     30 C16         1.8982    5.4959    4.0708 C.3       1 <0>        -0.0903
     31 C17         2.0074    6.7399    4.9144 C.ar      1 <0>        -0.0948
     32 C18         2.9182    6.7922    5.9531 C.ar      1 <0>        -0.0834
     33 C19         3.0195    7.9326    6.7271 C.ar      1 <0>        -0.1442
     34 C20         2.2085    9.0230    6.4619 C.ar      1 <0>         0.1031
     35 C21         1.2967    8.9695    5.4213 C.ar      1 <0>        -0.1530
     36 C22         1.2008    7.8299    4.6453 C.ar      1 <0>        -0.0863
     37 F1          2.3064   10.1382    7.2181 F         1 <0>        -0.1350
     38 N5          2.4515    6.6950    2.0123 N.am      1 <0>        -0.6953
     39 C23         1.2328    6.6778    1.4370 C.2       1 <0>         0.4965
     40 O7          0.4774    5.7519    1.6445 O.2       1 <0>        -0.4836
     41 C24         0.8088    7.8089    0.5361 C.3       1 <0>        -0.0292
     42 N6         -0.5501    7.5558    0.0389 N.4       1 <0>        -0.6209
     43 O8          0.6709   -0.4649   -1.1737 O.3       1 <0>        -0.5492
     44 H5          1.0039    1.9031    0.0027 H         1 <0>         0.0608
     45 H6         -0.5459    1.8868   -0.8726 H         1 <0>         0.0545
     46 H7         -0.5289    1.8773    0.9072 H         1 <0>         0.0757
     47 H8         -1.1137   -2.3674    1.1201 H         1 <0>         0.4122
     48 H9          0.4470   -4.5136    0.1534 H         1 <0>         0.1024
     49 H10         0.4159   -4.5988    1.9311 H         1 <0>         0.1010
     50 H11        -0.8290   -6.7620    0.9145 H         1 <0>         0.4119
     51 H12        -3.5098   -6.5227    1.7702 H         1 <0>         0.0687
     52 H13        -3.4787   -6.4375   -0.0074 H         1 <0>         0.0688
     53 H14         2.8384   -0.3857    0.9287 H         1 <0>         0.4114
     54 H15         3.9913    0.4207    3.4365 H         1 <0>         0.0875
     55 H16         5.1908    0.4271    2.1022 H         1 <0>         0.0996
     56 H17         5.7832    1.6651    4.4560 H         1 <0>         0.0954
     57 H18         6.2391    2.4444    2.9038 H         1 <0>         0.0840
     58 H19         3.7675    2.9618    4.6466 H         1 <0>         0.0779
     59 H20         4.8836    4.1593    3.9218 H         1 <0>         0.0821
     60 H21         0.8781    5.3970    3.6997 H         1 <0>         0.1052
     61 H22         2.1514    4.6243    4.6743 H         1 <0>         0.0952
     62 H23         3.5504    5.9415    6.1600 H         1 <0>         0.1363
     63 H24         3.7308    7.9732    7.5387 H         1 <0>         0.1408
     64 H25         0.6633    9.8193    5.2137 H         1 <0>         0.1354
     65 H26         0.4928    7.7895    3.8307 H         1 <0>         0.1174
     66 H27         3.0557    7.4355    1.8463 H         1 <0>         0.4140
     67 H28         0.8225    8.7441    1.0960 H         1 <0>         0.1610
     68 H29         1.4967    7.8798   -0.3065 H         1 <0>         0.1623
     69 H30        -0.8340    8.3132   -0.5644 H         1 <0>         0.4435
     70 H31        -0.5629    6.6902   -0.4794 H         1 <0>         0.4453
     71 H32         1.5879   -0.1667   -1.2470 H         1 <0>         0.3714
     72 H33        -1.1869    7.4903    0.8188 H         1 <0>         0.4412
@<TRIPOS>BOND
     1    1    2 1
     2    1   44 1
     3    1   45 1
     4    1   46 1
     5    2    3 1
     6    2    4 1
     7    2   43 1
     8    4    5 1
     9    4    6 1
    10    4   17 1
    11    6    7 2
    12    6    8 am
    13    8    9 1
    14    8   47 1
    15    9   10 1
    16    9   48 1
    17    9   49 1
    18   10   11 2
    19   10   12 am
    20   12   13 1
    21   12   50 1
    22   13   14 1
    23   13   51 1
    24   13   52 1
    25   14   15 2
    26   14   16 1
    27   17   18 am
    28   17   53 1
    29   18   19 2
    30   18   20 1
    31   20   21 1
    32   20   25 1
    33   20   22 1
    34   22   23 1
    35   22   54 1
    36   22   55 1
    37   23   24 1
    38   23   56 1
    39   23   57 1
    40   24   25 1
    41   24   58 1
    42   24   59 1
    43   25   26 am
    44   26   27 2
    45   26   28 1
    46   28   29 1
    47   28   30 1
    48   28   38 1
    49   30   31 1
    50   30   60 1
    51   30   61 1
    52   31   36 ar
    53   31   32 ar
    54   32   33 ar
    55   32   62 1
    56   33   34 ar
    57   33   63 1
    58   34   35 ar
    59   34   37 1
    60   35   36 ar
    61   35   64 1
    62   36   65 1
    63   38   39 am
    64   38   66 1
    65   39   40 2
    66   39   41 1
    67   41   42 1
    68   41   67 1
    69   41   68 1
    70   42   69 1
    71   42   70 1
    72   42   72 1
    73   43   71 1
@<TRIPOS>MOLECULE
CHEMBL1164546__1
   71    72     0     0     0
SMALL
USER_CHARGES

@<TRIPOS>ATOM
      1 C1         -0.0187    1.5258    0.0104 C.3       1 <0>        -0.1685
      2 C2          0.0021   -0.0041    0.0020 C.3       1 <0>         0.0927
      3 H1          0.5123   -0.3556   -0.8948 H         1 <0>         0.0678
      4 C3         -1.4333   -0.5336    0.0129 C.3       1 <0>         0.1423
      5 H2         -1.9334   -0.2470   -0.9122 H         1 <0>         0.1253
      6 C4         -1.4136   -2.0361    0.1285 C.2       1 <0>         0.5248
      7 O1         -1.9494   -2.5788    1.0714 O.2       1 <0>        -0.5358
      8 N1         -0.8004   -2.7766   -0.8161 N.am      1 <0>        -0.7075
      9 C5         -0.7812   -4.2372   -0.7037 C.3       1 <0>         0.1018
     10 C6         -0.0390   -4.8216   -1.8779 C.2       1 <0>         0.4971
     11 O2          0.4279   -4.0901   -2.7251 O.2       1 <0>        -0.5591
     12 N2          0.1058   -6.1572   -1.9864 N.am      1 <0>        -0.6902
     13 C7          0.8273   -6.7253   -3.1279 C.3       1 <0>         0.0500
     14 C8          0.8471   -8.2277   -3.0123 C.2       1 <0>         0.4901
     15 O3          0.3084   -8.7734   -2.0643 O.co2     1 <0>        -0.6907
     16 O4          1.4017   -8.8976   -3.8667 O.co2     1 <0>        -0.6865
     17 N3         -2.1548    0.0345    1.1543 N.am      1 <0>        -0.7027
     18 C9         -2.7392    1.2443    1.0477 C.2       1 <0>         0.5076
     19 O5         -2.6677    1.8626    0.0068 O.2       1 <0>        -0.5092
     20 C10        -3.4814    1.8287    2.2218 C.3       1 <0>         0.1253
     21 H3         -2.8076    1.9306    3.0726 H         1 <0>         0.0998
     22 C11        -4.6684    0.9175    2.5987 C.3       1 <0>        -0.1255
     23 C12        -5.7807    1.9326    2.9726 C.3       1 <0>        -0.1301
     24 C13        -5.5053    3.0796    1.9685 C.3       1 <0>         0.0953
     25 N4         -4.0331    3.1428    1.8608 N.am      1 <0>        -0.6047
     26 C14        -3.3147    4.2223    1.4934 C.2       1 <0>         0.5265
     27 O6         -2.1048    4.1562    1.4403 O.2       1 <0>        -0.4881
     28 C15        -4.0147    5.5116    1.1488 C.3       1 <0>         0.1530
     29 H4         -4.8410    5.6727    1.8411 H         1 <0>         0.1050
     30 C16        -4.5549    5.4323   -0.2805 C.3       1 <0>        -0.0921
     31 C17        -5.3594    6.6702   -0.5828 C.ar      1 <0>        -0.0851
     32 C18        -6.7149    6.6961   -0.3126 C.ar      1 <0>        -0.0890
     33 C19        -7.4537    7.8308   -0.5890 C.ar      1 <0>        -0.1516
     34 C20        -6.8356    8.9422   -1.1368 C.ar      1 <0>         0.0934
     35 C21        -5.4780    8.9151   -1.4071 C.ar      1 <0>        -0.1511
     36 C22        -4.7403    7.7811   -1.1249 C.ar      1 <0>        -0.0762
     37 F1         -7.5569   10.0519   -1.4078 F         1 <0>        -0.1414
     38 N5         -3.0673    6.6243    1.2517 N.am      1 <0>        -0.7252
     39 C23        -1.9598    6.6397    0.4837 C.2       1 <0>         0.5112
     40 O7         -1.7476    5.7324   -0.2926 O.2       1 <0>        -0.4801
     41 C24        -0.9853    7.7843    0.5897 C.3       1 <0>         0.0457
     42 N6          0.1284    7.5671   -0.3434 N.3       1 <0>        -0.8330
     43 O8          0.6932   -0.4774    1.1597 O.3       1 <0>        -0.5605
     44 H5          1.0039    1.9031    0.0027 H         1 <0>         0.0501
     45 H6         -0.5459    1.8868   -0.8726 H         1 <0>         0.0776
     46 H7         -0.5289    1.8773    0.9072 H         1 <0>         0.0679
     47 H8         -0.3719   -2.3425   -1.5703 H         1 <0>         0.4118
     48 H9         -0.2812   -4.5239    0.2214 H         1 <0>         0.1005
     49 H10        -1.8038   -4.6145   -0.6960 H         1 <0>         0.0995
     50 H11        -0.2676   -6.7422   -1.3088 H         1 <0>         0.4114
     51 H12         0.3273   -6.4386   -4.0530 H         1 <0>         0.0682
     52 H13         1.8499   -6.3480   -3.1356 H         1 <0>         0.0681
     53 H14        -2.2120   -0.4600    1.9868 H         1 <0>         0.4107
     54 H15        -4.9725    0.3084    1.7474 H         1 <0>         0.0849
     55 H16        -4.4164    0.2894    3.4531 H         1 <0>         0.0951
     56 H17        -6.7703    1.5038    2.8140 H         1 <0>         0.0906
     57 H18        -5.6659    2.2770    4.0003 H         1 <0>         0.0812
     58 H19        -5.9483    2.8501    0.9994 H         1 <0>         0.0735
     59 H20        -5.8970    4.0217    2.3521 H         1 <0>         0.0797
     60 H21        -3.7222    5.3603   -0.9802 H         1 <0>         0.1080
     61 H22        -5.1905    4.5525   -0.3804 H         1 <0>         0.0860
     62 H23        -7.1968    5.8290    0.1144 H         1 <0>         0.1324
     63 H24        -8.5127    7.8507   -0.3781 H         1 <0>         0.1349
     64 H25        -4.9949    9.7813   -1.8346 H         1 <0>         0.1344
     65 H26        -3.6804    7.7613   -1.3315 H         1 <0>         0.1299
     66 H27        -3.2371    7.3500    1.8726 H         1 <0>         0.4022
     67 H28        -1.4916    8.7168    0.3404 H         1 <0>         0.0970
     68 H29        -0.6004    7.8408    1.6079 H         1 <0>         0.0528
     69 H30         0.7961    8.3218   -0.2913 H         1 <0>         0.3465
     70 H31         0.5738    6.6778   -0.1740 H         1 <0>         0.3539
     71 H32         1.6114   -0.1800    1.2187 H         1 <0>         0.3804
@<TRIPOS>BOND
     1    1    2 1
     2    1   44 1
     3    1   45 1
     4    1   46 1
     5    2    3 1
     6    2    4 1
     7    2   43 1
     8    4    5 1
     9    4    6 1
    10    4   17 1
    11    6    7 2
    12    6    8 am
    13    8    9 1
    14    8   47 1
    15    9   10 1
    16    9   48 1
    17    9   49 1
    18   10   11 2
    19   10   12 am
    20   12   13 1
    21   12   50 1
    22   13   14 1
    23   13   51 1
    24   13   52 1
    25   14   15 2
    26   14   16 1
    27   17   18 am
    28   17   53 1
    29   18   19 2
    30   18   20 1
    31   20   21 1
    32   20   25 1
    33   20   22 1
    34   22   23 1
    35   22   54 1
    36   22   55 1
    37   23   24 1
    38   23   56 1
    39   23   57 1
    40   24   25 1
    41   24   58 1
    42   24   59 1
    43   25   26 am
    44   26   27 2
    45   26   28 1
    46   28   29 1
    47   28   30 1
    48   28   38 1
    49   30   31 1
    50   30   60 1
    51   30   61 1
    52   31   36 ar
    53   31   32 ar
    54   32   33 ar
    55   32   62 1
    56   33   34 ar
    57   33   63 1
    58   34   35 ar
    59   34   37 1
    60   35   36 ar
    61   35   64 1
    62   36   65 1
    63   38   39 am
    64   38   66 1
    65   39   40 2
    66   39   41 1
    67   41   42 1
    68   41   67 1
    69   41   68 1
    70   42   69 1
    71   42   70 1
    72   43   71 1
@<TRIPOS>MOLECULE
CHEMBL122937
   55    58     0     0     0
SMALL
USER_CHARGES

@<TRIPOS>ATOM
      1 C1         -0.0187    1.5258    0.0104 C.3       1 <0>        -0.1584
      2 C2          0.0021   -0.0041    0.0020 C.3       1 <0>        -0.0432
      3 C3          0.7182   -0.4975   -1.2568 C.3       1 <0>        -0.1561
      4 C4          0.7309   -0.5033    1.2229 C.ar      1 <0>         0.1521
      5 C5          0.0535   -1.3281    2.1345 C.ar      1 <0>        -0.0427
      6 C6          0.7288   -1.7946    3.2708 C.ar      1 <0>         0.0138
      7 C7          2.0797   -1.4033    3.4424 C.ar      1 <0>        -0.0244
      8 C8          2.8233   -1.8282    4.5518 C.ar      1 <0>        -0.1396
      9 C9          4.1225   -1.4323    4.6849 C.ar      1 <0>         0.1304
     10 C10         4.7184   -0.6091    3.7293 C.ar      1 <0>        -0.1298
     11 C11         4.0224   -0.1800    2.6412 C.ar      1 <0>        -0.0458
     12 C12         2.6822   -0.5681    2.4706 C.ar      1 <0>         0.0895
     13 N1          1.9819   -0.1610    1.4038 N.ar      1 <0>        -0.1080
     14 O1          2.6119    0.6690    0.4450 O.3       1 <0>        -0.5146
     15 F1          4.8393   -1.8418    5.7543 F         1 <0>        -0.1255
     16 C13         0.0540   -2.6651    4.2574 C.ar      1 <0>        -0.0721
     17 C14        -1.0236   -2.1785    4.9997 C.ar      1 <0>        -0.0575
     18 C15        -1.6496   -2.9947    5.9180 C.ar      1 <0>        -0.1481
     19 C16        -1.2108   -4.2961    6.1048 C.ar      1 <0>         0.1150
     20 C17        -0.1411   -4.7842    5.3708 C.ar      1 <0>        -0.1497
     21 C18         0.4884   -3.9784    4.4457 C.ar      1 <0>        -0.0743
     22 F2         -1.8276   -5.0917    7.0058 F         1 <0>        -0.1335
     23 C19        -1.3549   -1.6999    1.8993 C.2       1 <0>        -0.0992
     24 C20        -1.7262   -2.9725    1.9702 C.2       1 <0>        -0.1248
     25 C21        -3.1646   -3.3522    1.7300 C.3       1 <0>         0.1434
     26 H1         -3.5917   -3.7586    2.6468 H         1 <0>         0.1007
     27 C22        -3.2369   -4.4059    0.6216 C.3       1 <0>        -0.1486
     28 C23        -4.7030   -4.7590    0.3515 C.3       1 <0>         0.1044
     29 H2         -4.7591   -5.4998   -0.4462 H         1 <0>         0.0828
     30 C24        -5.4490   -3.4880   -0.0741 C.3       1 <0>        -0.2048
     31 C25        -5.1824   -2.4133    0.9570 C.2       1 <0>         0.4981
     32 O2         -6.0880   -1.7704    1.4330 O.2       1 <0>        -0.4476
     33 O3         -3.9047   -2.1933    1.3305 O.3       1 <0>        -0.3695
     34 O4         -5.2944   -5.2891    1.5394 O.3       1 <0>        -0.5639
     35 H3          1.0039    1.9031    0.0027 H         1 <0>         0.0936
     36 H4         -0.5459    1.8868   -0.8726 H         1 <0>         0.0642
     37 H5         -0.5289    1.8773    0.9072 H         1 <0>         0.0484
     38 H6         -1.0205   -0.3814    0.0098 H         1 <0>         0.0966
     39 H7          1.7408   -0.1202   -1.2645 H         1 <0>         0.0934
     40 H8          0.7330   -1.5874   -1.2628 H         1 <0>         0.0471
     41 H9          0.1910   -0.1364   -2.1398 H         1 <0>         0.0637
     42 H10         2.3705   -2.4650    5.2973 H         1 <0>         0.1555
     43 H11         5.7477   -0.3072    3.8550 H         1 <0>         0.1549
     44 H12         4.4987    0.4570    1.9106 H         1 <0>         0.1673
     45 H13        -1.3661   -1.1645    4.8552 H         1 <0>         0.1379
     46 H14        -2.4830   -2.6192    6.4931 H         1 <0>         0.1428
     47 H15         0.1970   -5.7990    5.5205 H         1 <0>         0.1430
     48 H16         1.3187   -4.3612    3.8708 H         1 <0>         0.1379
     49 H17        -2.0837   -0.9368    1.6694 H         1 <0>         0.1486
     50 H18        -0.9974   -3.7356    2.2001 H         1 <0>         0.1374
     51 H19        -2.7849   -4.0091   -0.2875 H         1 <0>         0.0996
     52 H20        -2.6990   -5.3007    0.9348 H         1 <0>         0.1011
     53 H21        -5.0886   -3.1594   -1.0489 H         1 <0>         0.1204
     54 H22        -6.5188   -3.6899   -0.1262 H         1 <0>         0.1098
     55 H23        -6.2244   -5.5346    1.4400 H         1 <0>         0.3881
@<TRIPOS>BOND
     1    1    2 1
     2    1   35 1
     3    1   36 1
     4    1   37 1
     5    2    3 1
     6    2    4 1
     7    2   38 1
     8    3   39 1
     9    3   40 1
    10    3   41 1
    11    4   13 ar
    12    4    5 ar
    13    5    6 ar
    14    5   23 1
    15    6    7 ar
    16    6   16 1
    17    7   12 ar
    18    7    8 ar
    19    8    9 ar
    20    8   42 1
    21    9   10 ar
    22    9   15 1
    23   10   11 ar
    24   10   43 1
    25   11   12 ar
    26   11   44 1
    27   12   13 ar
    28   13   14 1
    29   16   21 ar
    30   16   17 ar
    31   17   18 ar
    32   17   45 1
    33   18   19 ar
    34   18   46 1
    35   19   20 ar
    36   19   22 1
    37   20   21 ar
    38   20   47 1
    39   21   48 1
    40   23   24 2
    41   23   49 1
    42   24   25 1
    43   24   50 1
    44   25   26 1
    45   25   33 1
    46   25   27 1
    47   27   28 1
    48   27   51 1
    49   27   52 1
    50   28   29 1
    51   28   30 1
    52   28   34 1
    53   30   31 1
    54   30   53 1
    55   30   54 1
    56   31   32 2
    57   31   33 1
    58   34   55 1
@<TRIPOS>MOLECULE
CHEMBL298174
   46    48     0     0     0
SMALL
USER_CHARGES

@<TRIPOS>ATOM
      1 C1         -0.0167    1.3781    0.0096 C.ar      1 <0>        -0.1233
      2 C2          1.1709    2.0855    0.0021 C.ar      1 <0>        -0.1181
      3 C3          2.3773    1.4107   -0.0130 C.ar      1 <0>        -0.1142
      4 C4          2.3960    0.0285   -0.0201 C.ar      1 <0>        -0.0825
      5 C5          1.2084   -0.6789   -0.0117 C.ar      1 <0>        -0.1166
      6 C6          0.0021   -0.0041    0.0020 C.ar      1 <0>        -0.1184
      7 C7          3.7112   -0.7071   -0.0376 C.3       1 <0>        -0.0766
      8 C8          4.1714   -0.9633    1.3989 C.3       1 <0>        -0.0731
      9 C9          5.4865   -1.6989    1.3815 C.ar      1 <0>        -0.0455
     10 C10         5.5096   -3.0754    1.4728 C.ar      1 <0>        -0.1012
     11 C11         6.7168   -3.7533    1.4570 C.ar      1 <0>        -0.0215
     12 C12         7.9078   -3.0555    1.3500 C.ar      1 <0>        -0.1046
     13 C13         7.8978   -1.6781    1.2580 C.ar      1 <0>        -0.0178
     14 C14         6.6825   -0.9897    1.2672 C.ar      1 <0>        -0.0399
     15 C15         6.6638    0.4843    1.1624 C.2       1 <0>        -0.1013
     16 C16         7.4388    1.2149    1.9520 C.2       1 <0>        -0.1371
     17 C17         7.4198    2.7180    1.8451 C.3       1 <0>         0.1442
     18 C18         7.1091    3.3240    3.2163 C.3       1 <0>        -0.1480
     19 C19         7.0496    4.8501    3.0953 C.3       1 <0>         0.1042
     20 H1          6.8159    5.2847    4.0672 H         1 <0>         0.0819
     21 C20         5.9553    5.2255    2.0880 C.3       1 <0>        -0.2048
     22 C21         6.1958    4.4465    0.8133 C.2       1 <0>         0.4975
     23 O1          6.1953    4.9981   -0.2616 O.2       1 <0>        -0.4489
     24 O2          6.4104    3.1182    0.9116 O.3       1 <0>        -0.3689
     25 O3          8.3114    5.3438    2.6412 O.3       1 <0>        -0.5637
     26 Cl1         9.3918   -0.8041    1.1245 Cl        1 <0>        -0.0478
     27 Cl2         6.7370   -5.4854    1.5723 Cl        1 <0>        -0.0544
     28 H2         -0.9591    1.9053    0.0259 H         1 <0>         0.1207
     29 H3          1.1563    3.1654    0.0076 H         1 <0>         0.1205
     30 H4          3.3051    1.9634   -0.0196 H         1 <0>         0.1212
     31 H5          1.2231   -1.7588   -0.0176 H         1 <0>         0.1212
     32 H6         -0.9258   -0.5567    0.0082 H         1 <0>         0.1215
     33 H7          3.5884   -1.6586   -0.5549 H         1 <0>         0.0761
     34 H8          4.4573   -0.1052   -0.5563 H         1 <0>         0.0770
     35 H9          4.2941   -0.0118    1.9163 H         1 <0>         0.0836
     36 H10         3.4252   -1.5652    1.9176 H         1 <0>         0.0810
     37 H11         4.5840   -3.6254    1.5571 H         1 <0>         0.1421
     38 H12         8.8464   -3.5897    1.3389 H         1 <0>         0.1457
     39 H13         6.0189    0.9664    0.4426 H         1 <0>         0.1400
     40 H14         8.0837    0.7328    2.6718 H         1 <0>         0.1368
     41 H15         8.3926    3.0708    1.5027 H         1 <0>         0.0985
     42 H16         6.1485    2.9496    3.5702 H         1 <0>         0.0982
     43 H17         7.8910    3.0454    3.9227 H         1 <0>         0.1009
     44 H18         4.9773    4.9701    2.4957 H         1 <0>         0.1193
     45 H19         5.9991    6.2944    1.8791 H         1 <0>         0.1089
     46 H20         8.3450    6.3051    2.5419 H         1 <0>         0.3873
@<TRIPOS>BOND
     1    1    6 ar
     2    1    2 ar
     3    1   28 1
     4    2    3 ar
     5    2   29 1
     6    3    4 ar
     7    3   30 1
     8    4    5 ar
     9    4    7 1
    10    5    6 ar
    11    5   31 1
    12    6   32 1
    13    7    8 1
    14    7   33 1
    15    7   34 1
    16    8    9 1
    17    8   35 1
    18    8   36 1
    19    9   14 ar
    20    9   10 ar
    21   10   11 ar
    22   10   37 1
    23   11   12 ar
    24   11   27 1
    25   12   13 ar
    26   12   38 1
    27   13   14 ar
    28   13   26 1
    29   14   15 1
    30   15   16 2
    31   15   39 1
    32   16   17 1
    33   16   40 1
    34   17   24 1
    35   17   18 1
    36   17   41 1
    37   18   19 1
    38   18   42 1
    39   18   43 1
    40   19   20 1
    41   19   21 1
    42   19   25 1
    43   21   22 1
    44   21   44 1
    45   21   45 1
    46   22   23 2
    47   22   24 1
    48   25   46 1
@<TRIPOS>MOLECULE
CHEMBL298174__1
   46    48     0     0     0
SMALL
USER_CHARGES

@<TRIPOS>ATOM
      1 C1         -0.0167    1.3781    0.0096 C.ar      1 <0>        -0.1228
      2 C2          1.1709    2.0855    0.0021 C.ar      1 <0>        -0.1174
      3 C3          2.3773    1.4107   -0.0130 C.ar      1 <0>        -0.1171
      4 C4          2.3960    0.0285   -0.0201 C.ar      1 <0>        -0.0837
      5 C5          1.2084   -0.6789   -0.0117 C.ar      1 <0>        -0.1161
      6 C6          0.0021   -0.0041    0.0020 C.ar      1 <0>        -0.1169
      7 C7          3.7112   -0.7071   -0.0376 C.3       1 <0>        -0.0767
      8 C8          4.1714   -0.9633    1.3989 C.3       1 <0>        -0.0747
      9 C9          5.4865   -1.6989    1.3815 C.ar      1 <0>        -0.0433
     10 C10         5.5096   -3.0754    1.4728 C.ar      1 <0>        -0.1028
     11 C11         6.7168   -3.7533    1.4570 C.ar      1 <0>        -0.0179
     12 C12         7.9078   -3.0555    1.3500 C.ar      1 <0>        -0.1057
     13 C13         7.8978   -1.6781    1.2580 C.ar      1 <0>        -0.0148
     14 C14         6.6825   -0.9897    1.2672 C.ar      1 <0>        -0.0449
     15 C15         6.6638    0.4843    1.1624 C.2       1 <0>        -0.0958
     16 C16         7.4388    1.2149    1.9520 C.2       1 <0>        -0.1240
     17 C17         7.4198    2.7180    1.8451 C.3       1 <0>         0.1440
     18 C18         6.9968    3.3206    3.1875 C.3       1 <0>        -0.1525
     19 C19         7.0186    4.8492    3.0873 C.3       1 <0>         0.1099
     20 H1          6.3232    5.1744    2.3135 H         1 <0>         0.0685
     21 C20         8.4388    5.3022    2.7253 C.3       1 <0>        -0.2051
     22 C21         8.8868    4.5296    1.5040 C.2       1 <0>         0.4917
     23 O1          9.3721    5.0963    0.5536 O.2       1 <0>        -0.4454
     24 O2          8.7287    3.1898    1.5066 O.3       1 <0>        -0.3606
     25 O3          6.6378    5.4166    4.3423 O.3       1 <0>        -0.5544
     26 Cl1         9.3918   -0.8041    1.1245 Cl        1 <0>        -0.0404
     27 Cl2         6.7370   -5.4854    1.5723 Cl        1 <0>        -0.0527
     28 H2         -0.9591    1.9053    0.0259 H         1 <0>         0.1213
     29 H3          1.1563    3.1654    0.0076 H         1 <0>         0.1216
     30 H4          3.3051    1.9634   -0.0196 H         1 <0>         0.1194
     31 H5          1.2231   -1.7588   -0.0176 H         1 <0>         0.1217
     32 H6         -0.9258   -0.5567    0.0082 H         1 <0>         0.1222
     33 H7          3.5884   -1.6586   -0.5549 H         1 <0>         0.0775
     34 H8          4.4573   -0.1052   -0.5563 H         1 <0>         0.0757
     35 H9          4.2941   -0.0118    1.9163 H         1 <0>         0.0833
     36 H10         3.4252   -1.5652    1.9176 H         1 <0>         0.0829
     37 H11         4.5840   -3.6254    1.5571 H         1 <0>         0.1429
     38 H12         8.8464   -3.5897    1.3389 H         1 <0>         0.1467
     39 H13         6.0189    0.9664    0.4426 H         1 <0>         0.1321
     40 H14         8.0837    0.7328    2.6718 H         1 <0>         0.1302
     41 H15         6.7132    3.0189    1.0717 H         1 <0>         0.0848
     42 H16         5.9891    2.9867    3.4346 H         1 <0>         0.1012
     43 H17         7.6884    2.9972    3.9654 H         1 <0>         0.0941
     44 H18         8.4390    6.3698    2.5053 H         1 <0>         0.1086
     45 H19         9.1129    5.0978    3.5571 H         1 <0>         0.1191
     46 H20         6.6301    6.3835    4.3506 H         1 <0>         0.3863
@<TRIPOS>BOND
     1    1    6 ar
     2    1    2 ar
     3    1   28 1
     4    2    3 ar
     5    2   29 1
     6    3    4 ar
     7    3   30 1
     8    4    5 ar
     9    4    7 1
    10    5    6 ar
    11    5   31 1
    12    6   32 1
    13    7    8 1
    14    7   33 1
    15    7   34 1
    16    8    9 1
    17    8   35 1
    18    8   36 1
    19    9   14 ar
    20    9   10 ar
    21   10   11 ar
    22   10   37 1
    23   11   12 ar
    24   11   27 1
    25   12   13 ar
    26   12   38 1
    27   13   14 ar
    28   13   26 1
    29   14   15 1
    30   15   16 2
    31   15   39 1
    32   16   17 1
    33   16   40 1
    34   17   24 1
    35   17   18 1
    36   17   41 1
    37   18   19 1
    38   18   42 1
    39   18   43 1
    40   19   20 1
    41   19   21 1
    42   19   25 1
    43   21   22 1
    44   21   44 1
    45   21   45 1
    46   22   23 2
    47   22   24 1
    48   25   46 1
@<TRIPOS>MOLECULE
CHEMBL101806
   50    51     0     0     0
SMALL
USER_CHARGES

@<TRIPOS>ATOM
      1 C1         -0.0169    1.3958    0.0097 C.ar      1 <0>        -0.0500
      2 C2          1.1684    2.0988    0.0022 C.ar      1 <0>        -0.0480
      3 C3          2.3812    1.4262   -0.0135 C.ar      1 <0>        -0.0619
      4 C4          2.4153    0.0449   -0.0212 C.ar      1 <0>        -0.0629
      5 C5          1.2326   -0.6805   -0.0138 C.ar      1 <0>         0.1738
      6 C6          0.0021   -0.0041    0.0020 C.ar      1 <0>        -0.1681
      7 C7         -1.2562   -0.7599    0.0105 C.2       1 <0>         0.3940
      8 O1         -1.2353   -1.9727    0.0037 O.2       1 <0>        -0.4099
      9 C8         -2.5741   -0.0291    0.0275 C.3       1 <0>        -0.1267
     10 C9         -2.9448    0.3205    1.4701 C.3       1 <0>        -0.1097
     11 C10        -4.2828    1.0624    1.4874 C.3       1 <0>        -0.1160
     12 C11        -5.3688    0.1697    0.8837 C.3       1 <0>        -0.1234
     13 C12        -4.9981   -0.1798   -0.5589 C.3       1 <0>        -0.1180
     14 C13        -3.6601   -0.9218   -0.5762 C.3       1 <0>        -0.1088
     15 O2          1.2648   -2.0366   -0.0223 O.3       1 <0>        -0.2983
     16 C14         1.2928   -2.6928    1.2468 C.3       1 <0>         0.0475
     17 C15         1.3268   -4.2079    1.0368 C.3       1 <0>         0.1216
     18 C16         1.2311   -4.9128    2.3914 C.3       1 <0>        -0.1834
     19 C17         1.1395   -6.4245    2.1744 C.3       1 <0>         0.1401
     20 H1          0.3050   -6.6462    1.5092 H         1 <0>         0.0956
     21 C18         0.9187   -7.1204    3.5190 C.3       1 <0>        -0.2187
     22 C19         0.7060   -8.5950    3.2925 C.2       1 <0>         0.4908
     23 O3          0.7289   -9.0475    2.1606 O.co2     1 <0>        -0.6798
     24 O4          0.5110   -9.3356    4.2412 O.co2     1 <0>        -0.7133
     25 O5          2.3543   -6.8960    1.5879 O.3       1 <0>        -0.5265
     26 O6          2.5507   -4.5726    0.3955 O.3       1 <0>        -0.5297
     27 Cl1         3.9404   -0.7841   -0.0408 Cl        1 <0>        -0.0296
     28 Cl2         1.1434    3.8345    0.0117 Cl        1 <0>        -0.0494
     29 H2         -0.9588    1.9240    0.0260 H         1 <0>         0.1528
     30 H3          3.3049    1.9858   -0.0200 H         1 <0>         0.1528
     31 H4         -2.4894    0.8865   -0.5579 H         1 <0>         0.0957
     32 H5         -3.0295   -0.5951    2.0555 H         1 <0>         0.0716
     33 H6         -2.1711    0.9565    1.9002 H         1 <0>         0.0674
     34 H7         -4.5469    1.3115    2.5152 H         1 <0>         0.0668
     35 H8         -4.1981    1.9780    0.9020 H         1 <0>         0.0641
     36 H9         -5.4535   -0.7458    1.4691 H         1 <0>         0.0647
     37 H10        -6.3220    0.6983    0.8960 H         1 <0>         0.0628
     38 H11        -5.7718   -0.8158   -0.9890 H         1 <0>         0.0663
     39 H12        -4.9134    0.7357   -1.1443 H         1 <0>         0.0619
     40 H13        -3.3960   -1.1708   -1.6040 H         1 <0>         0.0665
     41 H14        -3.7448   -1.8373    0.0092 H         1 <0>         0.0765
     42 H15         2.1811   -2.3822    1.7969 H         1 <0>         0.0543
     43 H16         0.4017   -2.4245    1.8143 H         1 <0>         0.0618
     44 H17         0.4857   -4.5070    0.4114 H         1 <0>         0.1114
     45 H18         2.1171   -4.6838    2.9836 H         1 <0>         0.0649
     46 H19         0.3422   -4.5670    2.9189 H         1 <0>         0.0764
     47 H20         1.7932   -6.9725    4.1525 H         1 <0>         0.0567
     48 H21         0.0407   -6.6974    4.0071 H         1 <0>         0.0615
     49 H22         3.1406   -6.7322    2.1264 H         1 <0>         0.3500
     50 H23         3.3431   -4.3362    0.8968 H         1 <0>         0.3619
@<TRIPOS>BOND
     1    1    6 ar
     2    1    2 ar
     3    1   29 1
     4    2    3 ar
     5    2   28 1
     6    3    4 ar
     7    3   30 1
     8    4    5 ar
     9    4   27 1
    10    5    6 ar
    11    5   15 1
    12    6    7 1
    13    7    8 2
    14    7    9 1
    15    9   14 1
    16    9   10 1
    17    9   31 1
    18   10   11 1
    19   10   32 1
    20   10   33 1
    21   11   12 1
    22   11   34 1
    23   11   35 1
    24   12   13 1
    25   12   36 1
    26   12   37 1
    27   13   14 1
    28   13   38 1
    29   13   39 1
    30   14   40 1
    31   14   41 1
    32   15   16 1
    33   16   17 1
    34   16   42 1
    35   16   43 1
    36   17   18 1
    37   17   26 1
    38   17   44 1
    39   18   19 1
    40   18   45 1
    41   18   46 1
    42   19   20 1
    43   19   21 1
    44   19   25 1
    45   21   22 1
    46   21   47 1
    47   21   48 1
    48   22   23 2
    49   22   24 1
    50   25   49 1
    51   26   50 1
@<TRIPOS>MOLECULE
CHEMBL101806__1
   50    51     0     0     0
SMALL
USER_CHARGES

@<TRIPOS>ATOM
      1 C1         -0.0169    1.3958    0.0097 C.ar      1 <0>        -0.0507
      2 C2          1.1684    2.0988    0.0022 C.ar      1 <0>        -0.0479
      3 C3          2.3812    1.4262   -0.0135 C.ar      1 <0>        -0.0619
      4 C4          2.4153    0.0449   -0.0212 C.ar      1 <0>        -0.0639
      5 C5          1.2326   -0.6805   -0.0138 C.ar      1 <0>         0.1734
      6 C6          0.0021   -0.0041    0.0020 C.ar      1 <0>        -0.1666
      7 C7         -1.2562   -0.7599    0.0105 C.2       1 <0>         0.3914
      8 O1         -1.2353   -1.9727    0.0037 O.2       1 <0>        -0.4025
      9 C8         -2.5741   -0.0291    0.0275 C.3       1 <0>        -0.1266
     10 C9         -2.9448    0.3205    1.4701 C.3       1 <0>        -0.1091
     11 C10        -4.2828    1.0624    1.4874 C.3       1 <0>        -0.1163
     12 C11        -5.3688    0.1697    0.8837 C.3       1 <0>        -0.1230
     13 C12        -4.9981   -0.1798   -0.5589 C.3       1 <0>        -0.1184
     14 C13        -3.6601   -0.9218   -0.5762 C.3       1 <0>        -0.1076
     15 O2          1.2648   -2.0366   -0.0223 O.3       1 <0>        -0.2982
     16 C14         1.2928   -2.6928    1.2468 C.3       1 <0>         0.0474
     17 C15         1.3268   -4.2079    1.0368 C.3       1 <0>         0.1200
     18 C16         1.4825   -4.9068    2.3890 C.3       1 <0>        -0.1836
     19 C17         1.6416   -6.4126    2.1694 C.3       1 <0>         0.1379
     20 H1          0.8024   -6.7848    1.5819 H         1 <0>         0.1047
     21 C18         1.6722   -7.1249    3.5232 C.3       1 <0>        -0.2181
     22 C19         1.7052   -8.6158    3.3057 C.2       1 <0>         0.4906
     23 O3          1.7044   -9.0668    2.1729 O.co2     1 <0>        -0.6795
     24 O4          1.7327   -9.3710    4.2625 O.co2     1 <0>        -0.7130
     25 O5          2.8620   -6.6657    1.4704 O.3       1 <0>        -0.5398
     26 O6          0.1094   -4.6307    0.4195 O.3       1 <0>        -0.5360
     27 Cl1         3.9404   -0.7841   -0.0408 Cl        1 <0>        -0.0308
     28 Cl2         1.1434    3.8345    0.0117 Cl        1 <0>        -0.0496
     29 H2         -0.9588    1.9240    0.0260 H         1 <0>         0.1525
     30 H3          3.3049    1.9858   -0.0200 H         1 <0>         0.1528
     31 H4         -2.4894    0.8865   -0.5579 H         1 <0>         0.0946
     32 H5         -3.0295   -0.5951    2.0555 H         1 <0>         0.0710
     33 H6         -2.1711    0.9565    1.9002 H         1 <0>         0.0669
     34 H7         -4.5469    1.3115    2.5152 H         1 <0>         0.0664
     35 H8         -4.1981    1.9780    0.9020 H         1 <0>         0.0640
     36 H9         -5.4535   -0.7458    1.4691 H         1 <0>         0.0644
     37 H10        -6.3220    0.6983    0.8960 H         1 <0>         0.0624
     38 H11        -5.7718   -0.8158   -0.9890 H         1 <0>         0.0660
     39 H12        -4.9134    0.7357   -1.1443 H         1 <0>         0.0616
     40 H13        -3.3960   -1.1708   -1.6040 H         1 <0>         0.0665
     41 H14        -3.7448   -1.8373    0.0092 H         1 <0>         0.0763
     42 H15         2.1811   -2.3822    1.7969 H         1 <0>         0.0597
     43 H16         0.4017   -2.4245    1.8143 H         1 <0>         0.0563
     44 H17         2.1688   -4.4670    0.3949 H         1 <0>         0.1133
     45 H18         2.3641   -4.5188    2.8991 H         1 <0>         0.0700
     46 H19         0.5984   -4.7199    2.9985 H         1 <0>         0.0716
     47 H20         2.5608   -6.8185    4.0750 H         1 <0>         0.0567
     48 H21         0.7814   -6.8605    4.0930 H         1 <0>         0.0621
     49 H22         3.6526   -6.3601    1.9358 H         1 <0>         0.3536
     50 H23        -0.6834   -4.4320    0.9363 H         1 <0>         0.3686
@<TRIPOS>BOND
     1    1    6 ar
     2    1    2 ar
     3    1   29 1
     4    2    3 ar
     5    2   28 1
     6    3    4 ar
     7    3   30 1
     8    4    5 ar
     9    4   27 1
    10    5    6 ar
    11    5   15 1
    12    6    7 1
    13    7    8 2
    14    7    9 1
    15    9   14 1
    16    9   10 1
    17    9   31 1
    18   10   11 1
    19   10   32 1
    20   10   33 1
    21   11   12 1
    22   11   34 1
    23   11   35 1
    24   12   13 1
    25   12   36 1
    26   12   37 1
    27   13   14 1
    28   13   38 1
    29   13   39 1
    30   14   40 1
    31   14   41 1
    32   15   16 1
    33   16   17 1
    34   16   42 1
    35   16   43 1
    36   17   18 1
    37   17   26 1
    38   17   44 1
    39   18   19 1
    40   18   45 1
    41   18   46 1
    42   19   20 1
    43   19   21 1
    44   19   25 1
    45   21   22 1
    46   21   47 1
    47   21   48 1
    48   22   23 2
    49   22   24 1
    50   25   49 1
    51   26   50 1
@<TRIPOS>MOLECULE
CHEMBL301952
   40    42     0     0     0
SMALL
USER_CHARGES

@<TRIPOS>ATOM
      1 C1         -0.0168    1.3902    0.0097 C.ar      1 <0>        -0.0701
      2 C2          1.1696    2.0939    0.0021 C.ar      1 <0>        -0.1519
      3 C3          2.3788    1.4175   -0.0135 C.ar      1 <0>         0.1083
      4 C4          2.4027    0.0320   -0.0216 C.ar      1 <0>        -0.1522
      5 C5          1.2214   -0.6803   -0.0142 C.ar      1 <0>        -0.0629
      6 C6          0.0021   -0.0041    0.0020 C.ar      1 <0>        -0.0636
      7 C7         -1.2697   -0.7647    0.0106 C.ar      1 <0>        -0.0103
      8 C8         -2.2605   -0.4613    0.9400 C.ar      1 <0>        -0.0914
      9 C9         -3.4449   -1.1725    0.9451 C.ar      1 <0>        -0.0220
     10 C10        -3.6562   -2.1899    0.0281 C.ar      1 <0>        -0.0976
     11 C11        -2.6851   -2.5046   -0.9015 C.ar      1 <0>        -0.0183
     12 C12        -1.4847   -1.7928   -0.9237 C.ar      1 <0>        -0.0299
     13 C13        -0.4452   -2.1210   -1.9188 C.2       1 <0>        -0.0992
     14 C14        -0.0597   -3.3799   -2.0850 C.2       1 <0>        -0.1401
     15 C15         1.0017   -3.7150   -3.1010 C.3       1 <0>         0.1438
     16 C16         2.1401   -4.4779   -2.4184 C.3       1 <0>        -0.1479
     17 C17         3.2359   -4.7805   -3.4453 C.3       1 <0>         0.1044
     18 H1          4.0542   -5.3126   -2.9600 H         1 <0>         0.0820
     19 C18         3.7541   -3.4570   -4.0223 C.3       1 <0>        -0.2046
     20 C19         2.5671   -2.6523   -4.5048 C.2       1 <0>         0.4974
     21 O1          2.5599   -2.1544   -5.6057 O.2       1 <0>        -0.4491
     22 O2          1.5171   -2.5064   -3.6703 O.3       1 <0>        -0.3677
     23 O3          2.6980   -5.5857   -4.4962 O.3       1 <0>        -0.5636
     24 Cl1        -2.9592   -3.7811   -2.0456 Cl        1 <0>        -0.0435
     25 Cl2        -4.6760   -0.7898    2.1078 Cl        1 <0>        -0.0502
     26 F1          3.5383    2.1109   -0.0213 F         1 <0>        -0.1366
     27 H2         -0.9588    1.9182    0.0260 H         1 <0>         0.1370
     28 H3          1.1560    3.1738    0.0081 H         1 <0>         0.1404
     29 H4          3.3475   -0.4909   -0.0342 H         1 <0>         0.1384
     30 H5          1.2409   -1.7601   -0.0212 H         1 <0>         0.1353
     31 H6         -2.1030    0.3302    1.6578 H         1 <0>         0.1451
     32 H7         -4.5856   -2.7399    0.0409 H         1 <0>         0.1482
     33 H8          0.0017   -1.3367   -2.5116 H         1 <0>         0.1414
     34 H9         -0.5066   -4.1643   -1.4921 H         1 <0>         0.1379
     35 H10         0.5696   -4.3327   -3.8883 H         1 <0>         0.0989
     36 H11         2.5537   -3.8703   -1.6135 H         1 <0>         0.0975
     37 H12         1.7572   -5.4127   -2.0089 H         1 <0>         0.1013
     38 H13         4.2846   -2.9016   -3.2488 H         1 <0>         0.1192
     39 H14         4.4256   -3.6580   -4.8571 H         1 <0>         0.1091
     40 H15         3.3388   -5.8156   -5.1829 H         1 <0>         0.3876
@<TRIPOS>BOND
     1    1    6 ar
     2    1    2 ar
     3    1   27 1
     4    2    3 ar
     5    2   28 1
     6    3    4 ar
     7    3   26 1
     8    4    5 ar
     9    4   29 1
    10    5    6 ar
    11    5   30 1
    12    6    7 1
    13    7   12 ar
    14    7    8 ar
    15    8    9 ar
    16    8   31 1
    17    9   10 ar
    18    9   25 1
    19   10   11 ar
    20   10   32 1
    21   11   12 ar
    22   11   24 1
    23   12   13 1
    24   13   14 2
    25   13   33 1
    26   14   15 1
    27   14   34 1
    28   15   22 1
    29   15   16 1
    30   15   35 1
    31   16   17 1
    32   16   36 1
    33   16   37 1
    34   17   18 1
    35   17   19 1
    36   17   23 1
    37   19   20 1
    38   19   38 1
    39   19   39 1
    40   20   21 2
    41   20   22 1
    42   23   40 1
@<TRIPOS>MOLECULE
CHEMBL301952__1
   40    42     0     0     0
SMALL
USER_CHARGES

@<TRIPOS>ATOM
      1 C1         -0.0168    1.3902    0.0097 C.ar      1 <0>        -0.0699
      2 C2          1.1696    2.0939    0.0021 C.ar      1 <0>        -0.1511
      3 C3          2.3788    1.4175   -0.0135 C.ar      1 <0>         0.1090
      4 C4          2.4027    0.0320   -0.0216 C.ar      1 <0>        -0.1523
      5 C5          1.2214   -0.6803   -0.0142 C.ar      1 <0>        -0.0686
      6 C6          0.0021   -0.0041    0.0020 C.ar      1 <0>        -0.0647
      7 C7         -1.2697   -0.7647    0.0106 C.ar      1 <0>        -0.0078
      8 C8         -2.2605   -0.4613    0.9400 C.ar      1 <0>        -0.0930
      9 C9         -3.4449   -1.1725    0.9451 C.ar      1 <0>        -0.0185
     10 C10        -3.6562   -2.1899    0.0281 C.ar      1 <0>        -0.0987
     11 C11        -2.6851   -2.5046   -0.9015 C.ar      1 <0>        -0.0153
     12 C12        -1.4847   -1.7928   -0.9237 C.ar      1 <0>        -0.0348
     13 C13        -0.4452   -2.1210   -1.9188 C.2       1 <0>        -0.0938
     14 C14        -0.0597   -3.3799   -2.0850 C.2       1 <0>        -0.1273
     15 C15         1.0017   -3.7150   -3.1010 C.3       1 <0>         0.1438
     16 C16         2.1910   -4.3756   -2.3989 C.3       1 <0>        -0.1524
     17 C17         3.2500   -4.7523   -3.4399 C.3       1 <0>         0.1096
     18 H1          3.5915   -3.8543   -3.9549 H         1 <0>         0.0687
     19 C18         2.6267   -5.7204   -4.4535 C.3       1 <0>        -0.2049
     20 C19         1.3454   -5.1048   -4.9721 C.2       1 <0>         0.4915
     21 O1          1.1177   -5.0496   -6.1574 O.2       1 <0>        -0.4451
     22 O2          0.4646   -4.6192   -4.0728 O.3       1 <0>        -0.3606
     23 O3          4.3565   -5.3820   -2.7909 O.3       1 <0>        -0.5545
     24 Cl1        -2.9592   -3.7811   -2.0456 Cl        1 <0>        -0.0361
     25 Cl2        -4.6760   -0.7898    2.1078 Cl        1 <0>        -0.0485
     26 F1          3.5383    2.1109   -0.0213 F         1 <0>        -0.1357
     27 H2         -0.9588    1.9182    0.0260 H         1 <0>         0.1376
     28 H3          1.1560    3.1738    0.0081 H         1 <0>         0.1410
     29 H4          3.3475   -0.4909   -0.0342 H         1 <0>         0.1406
     30 H5          1.2409   -1.7601   -0.0212 H         1 <0>         0.1366
     31 H6         -2.1030    0.3302    1.6578 H         1 <0>         0.1458
     32 H7         -4.5856   -2.7399    0.0409 H         1 <0>         0.1491
     33 H8          0.0017   -1.3367   -2.5116 H         1 <0>         0.1339
     34 H9         -0.5066   -4.1643   -1.4921 H         1 <0>         0.1313
     35 H10         1.3321   -2.8022   -3.5967 H         1 <0>         0.0853
     36 H11         2.6206   -3.6793   -1.6786 H         1 <0>         0.1006
     37 H12         1.8546   -5.2737   -1.8809 H         1 <0>         0.0946
     38 H13         3.3179   -5.8816   -5.2807 H         1 <0>         0.1087
     39 H14         2.4071   -6.6707   -3.9670 H         1 <0>         0.1192
     40 H15         5.0659   -5.6474   -3.3920 H         1 <0>         0.3866
@<TRIPOS>BOND
     1    1    6 ar
     2    1    2 ar
     3    1   27 1
     4    2    3 ar
     5    2   28 1
     6    3    4 ar
     7    3   26 1
     8    4    5 ar
     9    4   29 1
    10    5    6 ar
    11    5   30 1
    12    6    7 1
    13    7   12 ar
    14    7    8 ar
    15    8    9 ar
    16    8   31 1
    17    9   10 ar
    18    9   25 1
    19   10   11 ar
    20   10   32 1
    21   11   12 ar
    22   11   24 1
    23   12   13 1
    24   13   14 2
    25   13   33 1
    26   14   15 1
    27   14   34 1
    28   15   22 1
    29   15   16 1
    30   15   35 1
    31   16   17 1
    32   16   36 1
    33   16   37 1
    34   17   18 1
    35   17   19 1
    36   17   23 1
    37   19   20 1
    38   19   38 1
    39   19   39 1
    40   20   21 2
    41   20   22 1
    42   23   40 1
@<TRIPOS>MOLECULE
CHEMBL50566
   51    53     0     0     0
SMALL
USER_CHARGES

@<TRIPOS>ATOM
      1 C1         -0.5398    1.4480    0.0004 C.3       1 <0>        -0.1158
      2 C2         -0.2479   -0.0304   -0.0028 C.ar      1 <0>        -0.0829
      3 C3          0.0078   -0.6811   -1.1966 C.ar      1 <0>        -0.1153
      4 C4          0.2769   -2.0376   -1.2068 C.ar      1 <0>        -0.0737
      5 C5          0.2912   -2.7500   -0.0245 C.ar      1 <0>        -0.0722
      6 C6          0.0344   -2.0998    1.1806 C.ar      1 <0>        -0.0408
      7 C7         -0.2305   -0.7315    1.1856 C.ar      1 <0>        -0.1089
      8 C8          0.0480   -2.8603    2.4546 C.ar      1 <0>        -0.0470
      9 C9          0.8964   -2.4733    3.4905 C.ar      1 <0>        -0.0848
     10 C10         0.9058   -3.1832    4.6733 C.ar      1 <0>        -0.1466
     11 C11         0.0738   -4.2799    4.8322 C.ar      1 <0>         0.0970
     12 C12        -0.7707   -4.6683    3.8050 C.ar      1 <0>        -0.1143
     13 C13        -0.7914   -3.9598    2.6209 C.ar      1 <0>        -0.0802
     14 C14        -1.6729   -5.8621    3.9834 C.3       1 <0>        -0.1175
     15 F1          0.0865   -4.9726    5.9920 F         1 <0>        -0.1371
     16 C15         0.5836   -4.2283   -0.0374 C.3       1 <0>        -0.0929
     17 C16         2.0976   -4.4489   -0.0224 C.3       1 <0>        -0.1058
     18 C17         2.3944   -5.9497   -0.0354 C.3       1 <0>         0.1108
     19 C18         3.9029   -6.1736    0.1003 C.3       1 <0>        -0.1536
     20 C19         4.2003   -7.6755    0.0452 C.3       1 <0>         0.1042
     21 H1          5.2749   -7.8382    0.1287 H         1 <0>         0.0796
     22 C20         3.6988   -8.2316   -1.2936 C.3       1 <0>        -0.2049
     23 C21         2.2559   -7.8125   -1.4712 C.2       1 <0>         0.4963
     24 O1          1.4094   -8.6158   -1.7843 O.2       1 <0>        -0.4530
     25 O2          1.9417   -6.5159   -1.2703 O.3       1 <0>        -0.3673
     26 O3          3.5311   -8.3358    1.1215 O.3       1 <0>        -0.5631
     27 C22         0.5545   -2.7395   -2.5112 C.3       1 <0>        -0.1196
     28 H2          0.3930    2.0024    0.1032 H         1 <0>         0.0709
     29 H3         -1.0255    1.7245   -0.9354 H         1 <0>         0.0669
     30 H4         -1.1982    1.6866    0.8357 H         1 <0>         0.0666
     31 H5         -0.0031   -0.1278   -2.1240 H         1 <0>         0.1222
     32 H6         -0.4258   -0.2217    2.1175 H         1 <0>         0.1229
     33 H7          1.5457   -1.6191    3.3673 H         1 <0>         0.1333
     34 H8          1.5629   -2.8841    5.4765 H         1 <0>         0.1373
     35 H9         -1.4536   -4.2604    1.8224 H         1 <0>         0.1348
     36 H10        -2.6265   -5.5378    4.4001 H         1 <0>         0.0758
     37 H11        -1.8416   -6.3377    3.0172 H         1 <0>         0.0736
     38 H12        -1.2033   -6.5742    4.6619 H         1 <0>         0.0716
     39 H13         0.1399   -4.6941    0.8425 H         1 <0>         0.0806
     40 H14         0.1603   -4.6746   -0.9372 H         1 <0>         0.0857
     41 H15         2.5413   -3.9831   -0.9023 H         1 <0>         0.0783
     42 H16         2.5209   -4.0026    0.8775 H         1 <0>         0.0867
     43 H17         1.8784   -6.4300    0.7960 H         1 <0>         0.0856
     44 H18         4.4202   -5.6702   -0.7165 H         1 <0>         0.0960
     45 H19         4.2463   -5.7695    1.0526 H         1 <0>         0.0977
     46 H20         4.3013   -7.8287   -2.1076 H         1 <0>         0.1184
     47 H21         3.7675   -9.3194   -1.2884 H         1 <0>         0.1077
     48 H22         3.6760   -9.2915    1.1474 H         1 <0>         0.3862
     49 H23         1.6241   -2.7106   -2.7189 H         1 <0>         0.0709
     50 H24         0.2255   -3.7764   -2.4430 H         1 <0>         0.0742
     51 H25         0.0146   -2.2391   -3.3151 H         1 <0>         0.0655
@<TRIPOS>BOND
     1    1    2 1
     2    1   28 1
     3    1   29 1
     4    1   30 1
     5    2    7 ar
     6    2    3 ar
     7    3    4 ar
     8    3   31 1
     9    4    5 ar
    10    4   27 1
    11    5    6 ar
    12    5   16 1
    13    6    7 ar
    14    6    8 1
    15    7   32 1
    16    8   13 ar
    17    8    9 ar
    18    9   10 ar
    19    9   33 1
    20   10   11 ar
    21   10   34 1
    22   11   12 ar
    23   11   15 1
    24   12   13 ar
    25   12   14 1
    26   13   35 1
    27   14   36 1
    28   14   37 1
    29   14   38 1
    30   16   17 1
    31   16   39 1
    32   16   40 1
    33   17   18 1
    34   17   41 1
    35   17   42 1
    36   18   25 1
    37   18   19 1
    38   18   43 1
    39   19   20 1
    40   19   44 1
    41   19   45 1
    42   20   21 1
    43   20   22 1
    44   20   26 1
    45   22   23 1
    46   22   46 1
    47   22   47 1
    48   23   24 2
    49   23   25 1
    50   26   48 1
    51   27   49 1
    52   27   50 1
    53   27   51 1
@<TRIPOS>MOLECULE
CHEMBL50566__1
   51    53     0     0     0
SMALL
USER_CHARGES

@<TRIPOS>ATOM
      1 C1         -0.5401    1.4480    0.0014 C.3       1 <0>        -0.1162
      2 C2         -0.2480   -0.0304   -0.0023 C.ar      1 <0>        -0.0821
      3 C3          0.0077   -0.6807   -1.1963 C.ar      1 <0>        -0.1156
      4 C4          0.2769   -2.0372   -1.2071 C.ar      1 <0>        -0.0767
      5 C5          0.2913   -2.7500   -0.0250 C.ar      1 <0>        -0.0735
      6 C6          0.0345   -2.1002    1.1804 C.ar      1 <0>        -0.0367
      7 C7         -0.2305   -0.7320    1.1859 C.ar      1 <0>        -0.1087
      8 C8          0.0482   -2.8611    2.4541 C.ar      1 <0>        -0.0487
      9 C9          0.8966   -2.4745    3.4901 C.ar      1 <0>        -0.0846
     10 C10         0.9061   -3.1848    4.6726 C.ar      1 <0>        -0.1472
     11 C11         0.0741   -4.2816    4.8311 C.ar      1 <0>         0.0973
     12 C12        -0.7703   -4.6697    3.8039 C.ar      1 <0>        -0.1097
     13 C13        -0.7911   -3.9608    2.6200 C.ar      1 <0>        -0.0752
     14 C14        -1.6725   -5.8636    3.9819 C.3       1 <0>        -0.1159
     15 F1          0.0870   -4.9748    5.9907 F         1 <0>        -0.1380
     16 C15         0.5839   -4.2282   -0.0384 C.3       1 <0>        -0.0944
     17 C16         2.0978   -4.4487   -0.0236 C.3       1 <0>        -0.1047
     18 C17         2.3948   -5.9495   -0.0371 C.3       1 <0>         0.1096
     19 C18         3.9061   -6.1706   -0.1432 C.3       1 <0>        -0.1555
     20 C19         4.2026   -7.6734   -0.1148 C.3       1 <0>         0.1093
     21 H1          3.7095   -8.1589   -0.9569 H         1 <0>         0.0673
     22 C20         3.6708   -8.2591    1.1995 C.3       1 <0>        -0.2054
     23 C21         2.2240   -7.8437    1.3532 C.2       1 <0>         0.4916
     24 O1          1.3708   -8.6537    1.6285 O.2       1 <0>        -0.4477
     25 O2          1.9141   -6.5430    1.1741 O.3       1 <0>        -0.3609
     26 O3          5.6134   -7.8846   -0.1995 O.3       1 <0>        -0.5556
     27 C22         0.5545   -2.7386   -2.5117 C.3       1 <0>        -0.1192
     28 H2          0.3928    2.0024    0.1044 H         1 <0>         0.0712
     29 H3         -1.0258    1.7248   -0.9343 H         1 <0>         0.0670
     30 H4         -1.1984    1.6862    0.8369 H         1 <0>         0.0668
     31 H5         -0.0033   -0.1270   -2.1235 H         1 <0>         0.1222
     32 H6         -0.4259   -0.2225    2.1179 H         1 <0>         0.1232
     33 H7          1.5458   -1.6202    3.3671 H         1 <0>         0.1321
     34 H8          1.5632   -2.8859    5.4759 H         1 <0>         0.1361
     35 H9         -1.4533   -4.2611    1.8214 H         1 <0>         0.1330
     36 H10        -2.6261   -5.5395    4.3987 H         1 <0>         0.0744
     37 H11        -1.8411   -6.3389    3.0155 H         1 <0>         0.0739
     38 H12        -1.2028   -6.5760    4.6601 H         1 <0>         0.0705
     39 H13         0.1402   -4.6944    0.8414 H         1 <0>         0.0911
     40 H14         0.1605   -4.6742   -0.9384 H         1 <0>         0.0769
     41 H15         2.5415   -3.9825   -0.9033 H         1 <0>         0.0895
     42 H16         2.5212   -4.0027    0.8764 H         1 <0>         0.0803
     43 H17         1.8982   -6.4111   -0.8906 H         1 <0>         0.0802
     44 H18         4.2711   -5.7455   -1.0782 H         1 <0>         0.0986
     45 H19         4.4043   -5.6856    0.6962 H         1 <0>         0.0912
     46 H20         3.7399   -9.3465    1.1717 H         1 <0>         0.1070
     47 H21         4.2544   -7.8745    2.0359 H         1 <0>         0.1173
     48 H22         5.8731   -8.8160   -0.1869 H         1 <0>         0.3856
     49 H23         1.6241   -2.7095   -2.7194 H         1 <0>         0.0715
     50 H24         0.2256   -3.7755   -2.4439 H         1 <0>         0.0705
     51 H25         0.0146   -2.2380   -3.3154 H         1 <0>         0.0668
@<TRIPOS>BOND
     1    1    2 1
     2    1   28 1
     3    1   29 1
     4    1   30 1
     5    2    7 ar
     6    2    3 ar
     7    3    4 ar
     8    3   31 1
     9    4    5 ar
    10    4   27 1
    11    5    6 ar
    12    5   16 1
    13    6    7 ar
    14    6    8 1
    15    7   32 1
    16    8   13 ar
    17    8    9 ar
    18    9   10 ar
    19    9   33 1
    20   10   11 ar
    21   10   34 1
    22   11   12 ar
    23   11   15 1
    24   12   13 ar
    25   12   14 1
    26   13   35 1
    27   14   36 1
    28   14   37 1
    29   14   38 1
    30   16   17 1
    31   16   39 1
    32   16   40 1
    33   17   18 1
    34   17   41 1
    35   17   42 1
    36   18   25 1
    37   18   19 1
    38   18   43 1
    39   19   20 1
    40   19   44 1
    41   19   45 1
    42   20   21 1
    43   20   22 1
    44   20   26 1
    45   22   23 1
    46   22   46 1
    47   22   47 1
    48   23   24 2
    49   23   25 1
    50   26   48 1
    51   27   49 1
    52   27   50 1
    53   27   51 1
@<TRIPOS>MOLECULE
CHEMBL76073
   72    74     0     0     0
SMALL
USER_CHARGES

@<TRIPOS>ATOM
      1 C1          1.7404    1.2680    0.3726 C.3       1 <0>        -0.1560
      2 C2          1.5714   -0.2465    0.2355 C.3       1 <0>        -0.1052
      3 C3          1.7989   -0.6552   -1.2213 C.3       1 <0>        -0.0515
      4 C4          0.7801    0.0547   -2.1151 C.3       1 <0>        -0.1527
      5 C5          3.2141   -0.2593   -1.6470 C.3       1 <0>        -0.1453
      6 C6          1.6324   -2.1469   -1.3563 C.2       1 <0>         0.4643
      7 O1          1.2941   -2.8059   -0.4018 O.2       1 <0>        -0.4985
      8 O2          1.8601   -2.7434   -2.5370 O.3       1 <0>        -0.3284
      9 C7          1.8082   -4.1712   -2.5632 C.3       1 <0>         0.0918
     10 H1          1.8677   -4.5577   -1.5457 H         1 <0>         0.0926
     11 C8          0.4954   -4.6259   -3.2095 C.3       1 <0>        -0.1251
     12 C9          0.4089   -4.1054   -4.6443 C.3       1 <0>        -0.0551
     13 H2         -0.5187   -4.4524   -5.0995 H         1 <0>         0.0736
     14 C10         1.5993   -4.6183   -5.4618 C.3       1 <0>        -0.0993
     15 C11         2.8902   -4.1377   -4.8043 C.3       1 <0>        -0.0527
     16 H3          2.8695   -3.0496   -4.7425 H         1 <0>         0.0914
     17 C12         2.9766   -4.7109   -3.3849 C.3       1 <0>        -0.0728
     18 H4          2.9175   -5.7984   -3.4293 H         1 <0>         0.0918
     19 C13         4.3182   -4.2996   -2.7771 C.3       1 <0>        -0.0490
     20 H5          4.4490   -3.2215   -2.8697 H         1 <0>         0.0802
     21 C14         5.4303   -5.0229   -3.5426 C.3       1 <0>        -0.0499
     22 H6          6.3909   -4.5758   -3.2867 H         1 <0>         0.0777
     23 C15         5.2158   -4.9172   -5.0229 C.2       1 <0>        -0.1516
     24 C16         4.1011   -4.5546   -5.5784 C.2       1 <0>        -0.1446
     25 C17         5.4397   -6.4992   -3.1407 C.3       1 <0>        -0.1467
     26 C18         4.3603   -4.6942   -1.3233 C.2       1 <0>        -0.1193
     27 C19         4.5222   -3.7785   -0.4006 C.2       1 <0>        -0.1700
     28 C20         4.5644   -4.1730    1.0533 C.3       1 <0>         0.1464
     29 H7          3.7062   -3.7452    1.5715 H         1 <0>         0.0937
     30 C21         5.8565   -3.6512    1.6872 C.3       1 <0>        -0.1469
     31 C22         5.9155   -4.0894    3.1541 C.3       1 <0>         0.1040
     32 H8          6.8404   -3.7305    3.6055 H         1 <0>         0.0803
     33 C23         5.8742   -5.6216    3.2159 C.3       1 <0>        -0.2043
     34 C24         4.6880   -6.0977    2.4063 C.2       1 <0>         0.4970
     35 O3          3.9074   -6.9003    2.8605 O.2       1 <0>        -0.4513
     36 O4          4.5261   -5.6003    1.1626 O.3       1 <0>        -0.3680
     37 O5          4.7969   -3.5491    3.8604 O.3       1 <0>        -0.5623
     38 C25         0.4265   -2.5986   -4.6314 C.2       1 <0>        -0.1440
     39 C26        -0.6334   -1.9280   -5.0097 C.2       1 <0>        -0.1757
     40 C27        -0.5727   -0.4268   -5.1279 C.3       1 <0>        -0.1328
     41 H9          2.7487    1.5500    0.0693 H         1 <0>         0.0594
     42 H10         1.0146    1.7737   -0.2642 H         1 <0>         0.0597
     43 H11         1.5784    1.5592    1.4104 H         1 <0>         0.0593
     44 H12         2.2973   -0.7522    0.8723 H         1 <0>         0.0701
     45 H13         0.5632   -0.5285    0.5388 H         1 <0>         0.0710
     46 H14         0.8627    1.1325   -1.9753 H         1 <0>         0.0756
     47 H15         0.9774   -0.1926   -3.1582 H         1 <0>         0.0761
     48 H16        -0.2257   -0.2702   -1.8487 H         1 <0>         0.0610
     49 H17         3.9399   -0.7650   -1.0102 H         1 <0>         0.0587
     50 H18         3.3762   -0.5505   -2.6848 H         1 <0>         0.0690
     51 H19         3.3345    0.8196   -1.5493 H         1 <0>         0.0752
     52 H20         0.4543   -5.7151   -3.2169 H         1 <0>         0.0798
     53 H21        -0.3446   -4.2381   -2.6331 H         1 <0>         0.0682
     54 H22         1.5846   -5.7080   -5.4847 H         1 <0>         0.0656
     55 H23         1.5397   -4.2286   -6.4780 H         1 <0>         0.0684
     56 H24         6.0422   -5.1739   -5.6691 H         1 <0>         0.1031
     57 H25         4.0533   -4.5402   -6.6573 H         1 <0>         0.1045
     58 H26         4.4767   -6.9481   -3.3839 H         1 <0>         0.0567
     59 H27         6.2299   -7.0184   -3.6831 H         1 <0>         0.0548
     60 H28         5.6193   -6.5828   -2.0688 H         1 <0>         0.0628
     61 H29         4.2571   -5.7318   -1.0421 H         1 <0>         0.1256
     62 H30         4.6255   -2.7409   -0.6817 H         1 <0>         0.1244
     63 H31         6.7144   -4.0575    1.1515 H         1 <0>         0.0961
     64 H32         5.8750   -2.5627    1.6318 H         1 <0>         0.0976
     65 H33         6.7933   -6.0312    2.7969 H         1 <0>         0.1183
     66 H34         5.7659   -5.9448    4.2513 H         1 <0>         0.1081
     67 H35         4.7710   -3.7873    4.7973 H         1 <0>         0.3862
     68 H36         1.3128   -2.0716   -4.3104 H         1 <0>         0.1289
     69 H37        -1.5506   -2.4509   -5.2368 H         1 <0>         0.1005
     70 H38        -1.5169   -0.0553   -5.5259 H         1 <0>         0.0571
     71 H39        -0.3966    0.0083   -4.1441 H         1 <0>         0.0701
     72 H40         0.2395   -0.1478   -5.7992 H         1 <0>         0.0621
@<TRIPOS>BOND
     1    1    2 1
     2    1   41 1
     3    1   42 1
     4    1   43 1
     5    2    3 1
     6    2   44 1
     7    2   45 1
     8    3    4 1
     9    3    5 1
    10    3    6 1
    11    4   46 1
    12    4   47 1
    13    4   48 1
    14    5   49 1
    15    5   50 1
    16    5   51 1
    17    6    7 2
    18    6    8 1
    19    8    9 1
    20    9   10 1
    21    9   17 1
    22    9   11 1
    23   11   12 1
    24   11   52 1
    25   11   53 1
    26   12   13 1
    27   12   14 1
    28   12   38 1
    29   14   15 1
    30   14   54 1
    31   14   55 1
    32   15   16 1
    33   15   24 1
    34   15   17 1
    35   17   18 1
    36   17   19 1
    37   19   20 1
    38   19   21 1
    39   19   26 1
    40   21   22 1
    41   21   23 1
    42   21   25 1
    43   23   24 2
    44   23   56 1
    45   24   57 1
    46   25   58 1
    47   25   59 1
    48   25   60 1
    49   26   27 2
    50   26   61 1
    51   27   28 1
    52   27   62 1
    53   28   29 1
    54   28   36 1
    55   28   30 1
    56   30   31 1
    57   30   63 1
    58   30   64 1
    59   31   32 1
    60   31   33 1
    61   31   37 1
    62   33   34 1
    63   33   65 1
    64   33   66 1
    65   34   35 2
    66   34   36 1
    67   37   67 1
    68   38   39 2
    69   38   68 1
    70   39   40 1
    71   39   69 1
    72   40   70 1
    73   40   71 1
    74   40   72 1
@<TRIPOS>MOLECULE
CHEMBL122219
   68    71     0     0     0
SMALL
USER_CHARGES

@<TRIPOS>ATOM
      1 C1          1.6656    0.8950    1.2926 C.3       1 <0>        -0.1520
      2 C2          1.3532   -0.5844    1.0593 C.3       1 <0>         0.0589
      3 O1          1.6317   -0.9213   -0.3012 O.3       1 <0>        -0.3432
      4 C3          1.4080   -2.1979   -0.6740 C.2       1 <0>         0.5522
      5 O2          0.9877   -3.0028    0.1349 O.2       1 <0>        -0.4992
      6 C4          1.6715   -2.6154   -2.0548 C.2       1 <0>        -0.1672
      7 C5          2.9315   -3.1530   -2.5949 C.2       1 <0>        -0.0872
      8 C6          2.7111   -3.3994   -3.9116 C.2       1 <0>         0.0684
      9 N1          1.4295   -3.0606   -4.2243 N.pl3     1 <0>        -0.4190
     10 C7          0.7803   -2.5908   -3.1236 C.2       1 <0>         0.1143
     11 C8         -0.6221   -2.1335   -3.0732 C.ar      1 <0>        -0.0432
     12 C9         -1.1247   -1.3014   -4.0765 C.ar      1 <0>        -0.0794
     13 C10        -2.4356   -0.8777   -4.0244 C.ar      1 <0>        -0.1475
     14 C11        -3.2545   -1.2757   -2.9792 C.ar      1 <0>         0.1095
     15 C12        -2.7613   -2.1013   -1.9808 C.ar      1 <0>        -0.1463
     16 C13        -1.4535   -2.5356   -2.0251 C.ar      1 <0>        -0.0686
     17 F1         -4.5382   -0.8571   -2.9330 F         1 <0>        -0.1348
     18 C14         0.8324   -3.1884   -5.5560 C.3       1 <0>         0.0838
     19 C15         0.0604   -4.5064   -5.6444 C.3       1 <0>        -0.1410
     20 C16        -0.5953   -4.6219   -7.0219 C.3       1 <0>         0.1141
     21 H1         -1.2136   -3.7433   -7.2055 H         1 <0>         0.0900
     22 C17        -1.4672   -5.8795   -7.0691 C.3       1 <0>        -0.1522
     23 C18        -2.0891   -6.0142   -8.4628 C.3       1 <0>         0.1048
     24 H2         -2.7006   -6.9155   -8.5042 H         1 <0>         0.0818
     25 C19        -0.9638   -6.1084   -9.5010 C.3       1 <0>        -0.2048
     26 C20        -0.0179   -4.9479   -9.2827 C.2       1 <0>         0.4976
     27 O3          0.3357   -4.2522  -10.2051 O.2       1 <0>        -0.4489
     28 O4          0.4194   -4.7112   -8.0284 O.3       1 <0>        -0.3704
     29 O5         -2.9020   -4.8713   -8.7367 O.3       1 <0>        -0.5637
     30 C21         3.7250   -3.9597   -4.8755 C.3       1 <0>        -0.0292
     31 C22         3.1428   -5.1935   -5.5680 C.3       1 <0>        -0.1636
     32 C23         4.0703   -2.9012   -5.9249 C.3       1 <0>        -0.1516
     33 C24         4.1923   -3.3796   -1.8482 C.ar      1 <0>        -0.0165
     34 C25         5.3323   -2.6404   -2.1596 C.ar      1 <0>        -0.1026
     35 C26         6.5030   -2.8557   -1.4613 C.ar      1 <0>        -0.1203
     36 C27         6.5465   -3.8029   -0.4540 C.ar      1 <0>        -0.1186
     37 C28         5.4184   -4.5397   -0.1409 C.ar      1 <0>        -0.1194
     38 C29         4.2405   -4.3287   -0.8283 C.ar      1 <0>        -0.1022
     39 H3          2.7182    1.0820    1.0802 H         1 <0>         0.0670
     40 H4          1.0480    1.5051    0.6335 H         1 <0>         0.0663
     41 H5          1.4532    1.1520    2.3304 H         1 <0>         0.0799
     42 H6          1.9708   -1.1945    1.7184 H         1 <0>         0.0677
     43 H7          0.3006   -0.7714    1.2718 H         1 <0>         0.0669
     44 H8         -0.4875   -0.9904   -4.8912 H         1 <0>         0.1350
     45 H9         -2.8252   -0.2341   -4.7993 H         1 <0>         0.1418
     46 H10        -3.4039   -2.4082   -1.1688 H         1 <0>         0.1421
     47 H11        -1.0716   -3.1825   -1.2492 H         1 <0>         0.1414
     48 H12         0.1508   -2.3557   -5.7300 H         1 <0>         0.0962
     49 H13         1.6196   -3.1771   -6.3098 H         1 <0>         0.1161
     50 H14         0.7470   -5.3401   -5.4977 H         1 <0>         0.0964
     51 H15        -0.7090   -4.5292   -4.8727 H         1 <0>         0.0969
     52 H16        -0.8538   -6.7555   -6.8584 H         1 <0>         0.0981
     53 H17        -2.2586   -5.8014   -6.3237 H         1 <0>         0.0999
     54 H18        -0.4267   -7.0487   -9.3764 H         1 <0>         0.1196
     55 H19        -1.3848   -6.0554  -10.5050 H         1 <0>         0.1094
     56 H20        -3.3277   -4.8903   -9.6048 H         1 <0>         0.3877
     57 H21         4.6271   -4.2400   -4.3317 H         1 <0>         0.0981
     58 H22         3.9192   -5.6783   -6.1598 H         1 <0>         0.0647
     59 H23         2.7704   -5.8900   -4.8168 H         1 <0>         0.0588
     60 H24         2.3239   -4.8912   -6.2209 H         1 <0>         0.0709
     61 H25         4.5949   -2.0737   -5.4473 H         1 <0>         0.0616
     62 H26         4.7086   -3.3429   -6.6901 H         1 <0>         0.0668
     63 H27         3.1533   -2.5329   -6.3849 H         1 <0>         0.0559
     64 H28         5.2996   -1.9009   -2.9460 H         1 <0>         0.1222
     65 H29         7.3870   -2.2838   -1.7019 H         1 <0>         0.1231
     66 H30         7.4649   -3.9680    0.0898 H         1 <0>         0.1213
     67 H31         5.4583   -5.2783    0.6460 H         1 <0>         0.1225
     68 H32         3.3589   -4.9008   -0.5795 H         1 <0>         0.1225
@<TRIPOS>BOND
     1    1    2 1
     2    1   39 1
     3    1   40 1
     4    1   41 1
     5    2    3 1
     6    2   42 1
     7    2   43 1
     8    3    4 1
     9    4    5 2
    10    4    6 1
    11    6   10 2
    12    6    7 1
    13    7    8 2
    14    7   33 1
    15    8    9 1
    16    8   30 1
    17    9   10 1
    18    9   18 1
    19   10   11 1
    20   11   16 ar
    21   11   12 ar
    22   12   13 ar
    23   12   44 1
    24   13   14 ar
    25   13   45 1
    26   14   15 ar
    27   14   17 1
    28   15   16 ar
    29   15   46 1
    30   16   47 1
    31   18   19 1
    32   18   48 1
    33   18   49 1
    34   19   20 1
    35   19   50 1
    36   19   51 1
    37   20   21 1
    38   20   28 1
    39   20   22 1
    40   22   23 1
    41   22   52 1
    42   22   53 1
    43   23   24 1
    44   23   25 1
    45   23   29 1
    46   25   26 1
    47   25   54 1
    48   25   55 1
    49   26   27 2
    50   26   28 1
    51   29   56 1
    52   30   31 1
    53   30   32 1
    54   30   57 1
    55   31   58 1
    56   31   59 1
    57   31   60 1
    58   32   61 1
    59   32   62 1
    60   32   63 1
    61   33   38 ar
    62   33   34 ar
    63   34   35 ar
    64   34   64 1
    65   35   36 ar
    66   35   65 1
    67   36   37 ar
    68   36   66 1
    69   37   38 ar
    70   37   67 1
    71   38   68 1
@<TRIPOS>MOLECULE
CHEMBL331610
   82    85     0     0     0
SMALL
USER_CHARGES

@<TRIPOS>ATOM
      1 C1          2.1563    2.4778   -1.3697 C.3       1 <0>        -0.1561
      2 C2          1.5689    1.0766   -1.1895 C.3       1 <0>        -0.1058
      3 C3          2.2380    0.1129   -2.1716 C.3       1 <0>        -0.0525
      4 C4          1.9890    0.5900   -3.6039 C.3       1 <0>        -0.1488
      5 C5          3.7435    0.0735   -1.9017 C.3       1 <0>        -0.1451
      6 C6          1.6595   -1.2672   -1.9942 C.2       1 <0>         0.4635
      7 O1          0.8002   -1.4603   -1.1670 O.2       1 <0>        -0.5017
      8 O2          2.0989   -2.2820   -2.7550 O.3       1 <0>        -0.3329
      9 C7          1.5062   -3.5632   -2.5330 C.3       1 <0>         0.1067
     10 H1          1.2047   -3.6375   -1.4881 H         1 <0>         0.0942
     11 C8          0.2686   -3.6978   -3.4176 C.3       1 <0>        -0.1262
     12 H2         -0.4268   -2.8866   -3.2020 H         1 <0>         0.0779
     13 C9          0.7128   -3.6219   -4.8853 C.3       1 <0>        -0.0506
     14 H3         -0.1569   -3.6897   -5.5388 H         1 <0>         0.0836
     15 C10         1.6376   -4.7840   -5.1428 C.2       1 <0>        -0.1558
     16 C11         2.4312   -5.2412   -4.1923 C.2       1 <0>        -0.0693
     17 C12         2.5286   -4.6342   -2.8259 C.3       1 <0>        -0.0491
     18 C13         2.4892   -5.7679   -1.7993 C.3       1 <0>        -0.0697
     19 H4          2.5231   -5.3511   -0.7927 H         1 <0>         0.0809
     20 C14         3.7029   -6.6721   -2.0215 C.3       1 <0>        -0.0611
     21 H5          4.6024   -6.1433   -1.7063 H         1 <0>         0.0834
     22 C15         3.8463   -7.0652   -3.4601 C.2       1 <0>        -0.1301
     23 C16         3.2834   -6.4221   -4.4624 C.2       1 <0>        -0.1345
     24 C17         3.5450   -7.9361   -1.1740 C.3       1 <0>        -0.1519
     25 C18         1.2027   -6.5768   -1.9769 C.3       1 <0>        -0.1968
     26 C19         1.2431   -7.3111   -3.3185 C.3       1 <0>        -0.1745
     27 C20         0.0483   -8.2618   -3.4157 C.3       1 <0>         0.0989
     28 C21         0.0970   -9.0092   -4.7510 C.3       1 <0>        -0.1523
     29 C22        -1.1228   -9.9293   -4.8628 C.3       1 <0>         0.1059
     30 H6         -1.0983  -10.4538   -5.8180 H         1 <0>         0.0754
     31 C23        -2.3959   -9.0779   -4.7765 C.3       1 <0>        -0.2111
     32 C24        -2.3038   -8.2102   -3.5404 C.2       1 <0>         0.4978
     33 O3         -3.2211   -8.1456   -2.7567 O.2       1 <0>        -0.4536
     34 O4         -1.1682   -7.5103   -3.3388 O.3       1 <0>        -0.3409
     35 O5         -1.1056  -10.8788   -3.7949 O.3       1 <0>        -0.5628
     36 C25         1.4496   -2.3049   -5.1371 C.3       1 <0>        -0.1431
     37 C26        -0.4106   -5.0429   -3.1527 C.3       1 <0>         0.0830
     38 H7          0.3200   -5.8453   -3.2549 H         1 <0>         0.1955
     39 C27        -1.5242   -5.2479   -4.1471 C.ar      1 <0>        -0.0669
     40 C28        -2.7881   -4.7552   -3.8808 C.ar      1 <0>        -0.1173
     41 C29        -3.8096   -4.9432   -4.7930 C.ar      1 <0>        -0.1131
     42 C30        -3.5671   -5.6234   -5.9717 C.ar      1 <0>        -0.1271
     43 C31        -2.3031   -6.1153   -6.2384 C.ar      1 <0>        -0.1337
     44 C32        -1.2806   -5.9236   -5.3282 C.ar      1 <0>        -0.1044
     45 O6         -0.9470   -5.0530   -1.8282 O.3       1 <0>        -0.5348
     46 H8          3.2288    2.4497   -1.1774 H         1 <0>         0.0601
     47 H9          1.9789    2.8177   -2.3900 H         1 <0>         0.0599
     48 H10         1.6796    3.1643   -0.6700 H         1 <0>         0.0597
     49 H11         1.7463    0.7367   -0.1691 H         1 <0>         0.0710
     50 H12         0.4964    1.1047   -1.3818 H         1 <0>         0.0705
     51 H13         2.4075    1.5883   -3.7322 H         1 <0>         0.0756
     52 H14         2.4657   -0.0965   -4.3036 H         1 <0>         0.0735
     53 H15         0.9165    0.6182   -3.7962 H         1 <0>         0.0601
     54 H16         3.9209   -0.2664   -0.8814 H         1 <0>         0.0603
     55 H17         4.2202   -0.6130   -2.6014 H         1 <0>         0.0693
     56 H18         4.1620    1.0717   -2.0301 H         1 <0>         0.0759
     57 H19         1.6508   -5.2487   -6.1176 H         1 <0>         0.1165
     58 H20         3.5135   -4.1738   -2.7473 H         1 <0>         0.0928
     59 H21         4.4508   -7.9302   -3.6897 H         1 <0>         0.1128
     60 H22         3.4422   -6.7562   -5.4771 H         1 <0>         0.1238
     61 H23         2.6017   -8.4234   -1.4205 H         1 <0>         0.0652
     62 H24         4.3707   -8.6172   -1.3802 H         1 <0>         0.0570
     63 H25         3.5503   -7.6681   -0.1175 H         1 <0>         0.0590
     64 H26         1.1151   -7.3023   -1.1681 H         1 <0>         0.0669
     65 H27         0.3450   -5.9044   -1.9563 H         1 <0>         0.1642
     66 H28         1.1975   -6.5860   -4.1311 H         1 <0>         0.1156
     67 H29         2.1686   -7.8820   -3.3925 H         1 <0>         0.1122
     68 H30         0.0858   -8.9785   -2.5953 H         1 <0>         0.0792
     69 H31         0.0868   -8.2906   -5.5706 H         1 <0>         0.0914
     70 H32         1.0081   -9.6054   -4.8010 H         1 <0>         0.0943
     71 H33        -2.4775   -8.4481   -5.6623 H         1 <0>         0.1171
     72 H34        -3.2682   -9.7275   -4.7052 H         1 <0>         0.1013
     73 H35        -1.8512  -11.4945   -3.8041 H         1 <0>         0.3847
     74 H36         2.4265   -2.3371   -4.6547 H         1 <0>         0.0808
     75 H37         1.5786   -2.1600   -6.2097 H         1 <0>         0.0507
     76 H38         0.8686   -1.4792   -4.7262 H         1 <0>         0.0524
     77 H39        -2.9775   -4.2237   -2.9599 H         1 <0>         0.1146
     78 H40        -4.7971   -4.5589   -4.5846 H         1 <0>         0.1184
     79 H41        -4.3654   -5.7709   -6.6840 H         1 <0>         0.1184
     80 H42        -2.1138   -6.6471   -7.1592 H         1 <0>         0.1193
     81 H43        -0.2921   -6.3047   -5.5382 H         1 <0>         0.1185
     82 H44        -1.6055   -4.3639   -1.6652 H         1 <0>         0.3636
@<TRIPOS>BOND
     1    1    2 1
     2    1   46 1
     3    1   47 1
     4    1   48 1
     5    2    3 1
     6    2   49 1
     7    2   50 1
     8    3    4 1
     9    3    5 1
    10    3    6 1
    11    4   51 1
    12    4   52 1
    13    4   53 1
    14    5   54 1
    15    5   55 1
    16    5   56 1
    17    6    7 2
    18    6    8 1
    19    8    9 1
    20    9   10 1
    21    9   17 1
    22    9   11 1
    23   11   12 1
    24   11   13 1
    25   11   37 1
    26   13   14 1
    27   13   15 1
    28   13   36 1
    29   15   16 2
    30   15   57 1
    31   16   23 1
    32   16   17 1
    33   17   18 1
    34   17   58 1
    35   18   19 1
    36   18   20 1
    37   18   25 1
    38   20   21 1
    39   20   22 1
    40   20   24 1
    41   22   23 2
    42   22   59 1
    43   23   60 1
    44   24   61 1
    45   24   62 1
    46   24   63 1
    47   25   26 1
    48   25   64 1
    49   25   65 1
    50   26   27 1
    51   26   66 1
    52   26   67 1
    53   27   34 1
    54   27   28 1
    55   27   68 1
    56   28   29 1
    57   28   69 1
    58   28   70 1
    59   29   30 1
    60   29   31 1
    61   29   35 1
    62   31   32 1
    63   31   71 1
    64   31   72 1
    65   32   33 2
    66   32   34 1
    67   35   73 1
    68   36   74 1
    69   36   75 1
    70   36   76 1
    71   37   38 1
    72   37   39 1
    73   37   45 1
    74   39   44 ar
    75   39   40 ar
    76   40   41 ar
    77   40   77 1
    78   41   42 ar
    79   41   78 1
    80   42   43 ar
    81   42   79 1
    82   43   44 ar
    83   43   80 1
    84   44   81 1
    85   45   82 1
@<TRIPOS>MOLECULE
CHEMBL331610__1
   82    85     0     0     0
SMALL
USER_CHARGES

@<TRIPOS>ATOM
      1 C1          2.2338    1.6640   -0.2961 C.3       1 <0>        -0.1563
      2 C2          1.8164    0.1944   -0.2130 C.3       1 <0>        -0.1057
      3 C3          2.3232   -0.5505   -1.4496 C.3       1 <0>        -0.0524
      4 C4          1.7215    0.0802   -2.7070 C.3       1 <0>        -0.1490
      5 C5          3.8490   -0.4564   -1.5119 C.3       1 <0>        -0.1454
      6 C6          1.9121   -1.9980   -1.3677 C.2       1 <0>         0.4639
      7 O1          1.2787   -2.3933   -0.4177 O.2       1 <0>        -0.5021
      8 O2          2.2495   -2.8482   -2.3501 O.3       1 <0>        -0.3319
      9 C7          1.8267   -4.2057   -2.2069 C.3       1 <0>         0.1060
     10 H1          1.7744   -4.4502   -1.1460 H         1 <0>         0.0956
     11 C8          0.4370   -4.3602   -2.8211 C.3       1 <0>        -0.1205
     12 H2         -0.2551   -3.6675   -2.3424 H         1 <0>         0.0811
     13 C9          0.5329   -4.0425   -4.3201 C.3       1 <0>        -0.0498
     14 H3         -0.4531   -4.1205   -4.7784 H         1 <0>         0.0837
     15 C10         1.4665   -5.0496   -4.9413 C.2       1 <0>        -0.1607
     16 C11         2.4874   -5.5363   -4.2606 C.2       1 <0>        -0.0678
     17 C12         2.8400   -5.1075   -2.8690 C.3       1 <0>        -0.0514
     18 C13         3.1232   -6.3638   -2.0428 C.3       1 <0>        -0.0682
     19 H4          3.3486   -6.0820   -1.0143 H         1 <0>         0.0824
     20 C14         4.3247   -7.0892   -2.6513 C.3       1 <0>        -0.0608
     21 H5          5.2265   -6.5092   -2.4555 H         1 <0>         0.0836
     22 C15         4.1726   -7.2709   -4.1307 C.2       1 <0>        -0.1236
     23 C16         3.3492   -6.5685   -4.8815 C.2       1 <0>        -0.1414
     24 C17         4.4632   -8.4635   -1.9932 C.3       1 <0>        -0.1547
     25 C18         1.8989   -7.2811   -2.0673 C.3       1 <0>        -0.1966
     26 C19         1.6913   -7.8168   -3.4853 C.3       1 <0>        -0.1741
     27 C20         0.5551   -8.8415   -3.4820 C.3       1 <0>         0.1007
     28 C21         0.3049   -9.3318   -4.9107 C.3       1 <0>        -0.1594
     29 C22        -0.8050  -10.3878   -4.8980 C.3       1 <0>         0.1101
     30 H6         -1.7218   -9.9493   -4.5040 H         1 <0>         0.0667
     31 C23        -0.3684  -11.5555   -4.0042 C.3       1 <0>        -0.2057
     32 C24         0.0584  -10.9947   -2.6652 C.2       1 <0>         0.4897
     33 O3         -0.3581  -11.4652   -1.6331 O.2       1 <0>        -0.4484
     34 O4          0.9172   -9.9543   -2.6569 O.3       1 <0>        -0.3596
     35 O5         -1.0327  -10.8589   -6.2278 O.3       1 <0>        -0.5545
     36 C25         1.0860   -2.6296   -4.5168 C.3       1 <0>        -0.1435
     37 C26        -0.0551   -5.7960   -2.6282 C.3       1 <0>         0.0689
     38 H7          0.6921   -6.4908   -3.0117 H         1 <0>         0.1894
     39 C27        -1.3498   -5.9880   -3.3751 C.ar      1 <0>        -0.1068
     40 C28        -2.5388   -5.5526   -2.8204 C.ar      1 <0>        -0.1145
     41 C29        -3.7264   -5.7287   -3.5056 C.ar      1 <0>        -0.1127
     42 C30        -3.7250   -6.3397   -4.7456 C.ar      1 <0>        -0.1188
     43 C31        -2.5359   -6.7743   -5.3006 C.ar      1 <0>        -0.1156
     44 C32        -1.3477   -6.5943   -4.6174 C.ar      1 <0>        -0.1200
     45 O6         -0.2665   -6.0442   -1.2368 O.3       1 <0>        -0.5384
     46 H8          3.3208    1.7310   -0.3406 H         1 <0>         0.0602
     47 H9          1.8051    2.1133   -1.1920 H         1 <0>         0.0600
     48 H10         1.8728    2.1947    0.5849 H         1 <0>         0.0599
     49 H11         2.2451   -0.2549    0.6829 H         1 <0>         0.0711
     50 H12         0.7294    0.1274   -0.1685 H         1 <0>         0.0704
     51 H13         2.0189    1.1272   -2.7663 H         1 <0>         0.0760
     52 H14         2.0826   -0.4505   -3.5880 H         1 <0>         0.0736
     53 H15         0.6345    0.0131   -2.6626 H         1 <0>         0.0601
     54 H16         4.2777   -0.9057   -0.6161 H         1 <0>         0.0605
     55 H17         4.2101   -0.9871   -2.3929 H         1 <0>         0.0695
     56 H18         4.1464    0.5906   -1.5712 H         1 <0>         0.0762
     57 H19         1.2978   -5.3775   -5.9564 H         1 <0>         0.1184
     58 H20         3.7771   -4.5542   -2.9299 H         1 <0>         0.0950
     59 H21         4.7776   -8.0250   -4.6120 H         1 <0>         0.1131
     60 H22         3.3025   -6.7461   -5.9458 H         1 <0>         0.1249
     61 H23         3.5293   -9.0148   -2.1031 H         1 <0>         0.0727
     62 H24         5.2703   -9.0166   -2.4735 H         1 <0>         0.0556
     63 H25         4.6886   -8.3381   -0.9342 H         1 <0>         0.0580
     64 H26         2.0560   -8.1150   -1.3832 H         1 <0>         0.0789
     65 H27         1.0175   -6.7190   -1.7586 H         1 <0>         0.1538
     66 H28         1.4355   -6.9927   -4.1512 H         1 <0>         0.1272
     67 H29         2.6087   -8.2927   -3.8318 H         1 <0>         0.1078
     68 H30        -0.3512   -8.3786   -3.0916 H         1 <0>         0.0808
     69 H31         0.0007   -8.4920   -5.5354 H         1 <0>         0.0977
     70 H32         1.2194   -9.7702   -5.3101 H         1 <0>         0.0915
     71 H33        -1.2021  -12.2438   -3.8654 H         1 <0>         0.1063
     72 H34         0.4682  -12.0794   -4.4666 H         1 <0>         0.1175
     73 H35        -1.7245  -11.5313   -6.2938 H         1 <0>         0.3845
     74 H36         2.1450   -2.6149   -4.2589 H         1 <0>         0.0817
     75 H37         0.9616   -2.3324   -5.5581 H         1 <0>         0.0519
     76 H38         0.5457   -1.9351   -3.8737 H         1 <0>         0.0529
     77 H39        -2.5399   -5.0753   -1.8517 H         1 <0>         0.1185
     78 H40        -4.6555   -5.3892   -3.0719 H         1 <0>         0.1230
     79 H41        -4.6530   -6.4779   -5.2805 H         1 <0>         0.1228
     80 H42        -2.5348   -7.2519   -6.2692 H         1 <0>         0.1247
     81 H43        -0.4182   -6.9305   -5.0526 H         1 <0>         0.1238
     82 H44        -0.9208   -5.4610   -0.8283 H         1 <0>         0.3681
@<TRIPOS>BOND
     1    1    2 1
     2    1   46 1
     3    1   47 1
     4    1   48 1
     5    2    3 1
     6    2   49 1
     7    2   50 1
     8    3    4 1
     9    3    5 1
    10    3    6 1
    11    4   51 1
    12    4   52 1
    13    4   53 1
    14    5   54 1
    15    5   55 1
    16    5   56 1
    17    6    7 2
    18    6    8 1
    19    8    9 1
    20    9   10 1
    21    9   17 1
    22    9   11 1
    23   11   12 1
    24   11   13 1
    25   11   37 1
    26   13   14 1
    27   13   15 1
    28   13   36 1
    29   15   16 2
    30   15   57 1
    31   16   23 1
    32   16   17 1
    33   17   18 1
    34   17   58 1
    35   18   19 1
    36   18   20 1
    37   18   25 1
    38   20   21 1
    39   20   22 1
    40   20   24 1
    41   22   23 2
    42   22   59 1
    43   23   60 1
    44   24   61 1
    45   24   62 1
    46   24   63 1
    47   25   26 1
    48   25   64 1
    49   25   65 1
    50   26   27 1
    51   26   66 1
    52   26   67 1
    53   27   34 1
    54   27   28 1
    55   27   68 1
    56   28   29 1
    57   28   69 1
    58   28   70 1
    59   29   30 1
    60   29   31 1
    61   29   35 1
    62   31   32 1
    63   31   71 1
    64   31   72 1
    65   32   33 2
    66   32   34 1
    67   35   73 1
    68   36   74 1
    69   36   75 1
    70   36   76 1
    71   37   38 1
    72   37   39 1
    73   37   45 1
    74   39   44 ar
    75   39   40 ar
    76   40   41 ar
    77   40   77 1
    78   41   42 ar
    79   41   78 1
    80   42   43 ar
    81   42   79 1
    82   43   44 ar
    83   43   80 1
    84   44   81 1
    85   45   82 1
@<TRIPOS>MOLECULE
CHEMBL331610__2
   82    85     0     0     0
SMALL
USER_CHARGES

@<TRIPOS>ATOM
      1 C1          0.5415   -0.1526    0.4598 C.3       1 <0>        -0.1544
      2 C2          1.4244   -1.3886    0.2764 C.3       1 <0>        -0.1029
      3 C3          1.5499   -1.7091   -1.2143 C.3       1 <0>        -0.0437
      4 C4          0.1614   -1.9834   -1.7956 C.3       1 <0>        -0.1467
      5 C5          2.1809   -0.5193   -1.9404 C.3       1 <0>        -0.1683
      6 C6          2.4195   -2.9265   -1.3950 C.2       1 <0>         0.4885
      7 O1          2.9956   -3.4036   -0.4461 O.2       1 <0>        -0.5073
      8 O2          2.5541   -3.4809   -2.6100 O.3       1 <0>        -0.3282
      9 C7          3.3189   -4.6852   -2.6925 C.3       1 <0>         0.1012
     10 H1          3.9330   -4.7767   -1.7966 H         1 <0>         0.0875
     11 C8          2.3646   -5.8754   -2.7640 C.3       1 <0>        -0.1195
     12 H2          1.7191   -5.7767   -3.6368 H         1 <0>         0.0880
     13 C9          3.1998   -7.1584   -2.8809 C.3       1 <0>        -0.0489
     14 H3          3.8803   -7.2351   -2.0328 H         1 <0>         0.0836
     15 C10         3.9881   -7.0746   -4.1629 C.2       1 <0>        -0.1396
     16 C11         4.4196   -5.9129   -4.6176 C.2       1 <0>        -0.0830
     17 C12         4.2211   -4.6117   -3.9004 C.3       1 <0>        -0.0476
     18 C13         3.7417   -3.5748   -4.9181 C.3       1 <0>        -0.0567
     19 H4          2.8253   -3.9250   -5.3931 H         1 <0>         0.0723
     20 C14         4.8299   -3.3888   -5.9771 C.3       1 <0>        -0.0615
     21 H5          4.4306   -2.7897   -6.7954 H         1 <0>         0.0824
     22 C15         5.3064   -4.7013   -6.5199 C.2       1 <0>        -0.1361
     23 C16         5.1400   -5.8607   -5.9107 C.2       1 <0>        -0.1261
     24 C17         6.0145   -2.6503   -5.3506 C.3       1 <0>        -0.1642
     25 C18         3.4770   -2.2446   -4.2100 C.3       1 <0>        -0.1161
     26 C19         3.6154   -1.0969   -5.2122 C.3       1 <0>        -0.1467
     27 C20         4.0117    0.1819   -4.4716 C.3       1 <0>         0.0976
     28 C21         4.1746    1.3252   -5.4768 C.3       1 <0>        -0.1544
     29 C22         4.6117    2.5935   -4.7368 C.3       1 <0>         0.1047
     30 H6          4.7411    3.4066   -5.4511 H         1 <0>         0.0782
     31 C23         5.9421    2.3185   -4.0245 C.3       1 <0>        -0.2060
     32 C24         5.7864    1.0620   -3.1962 C.2       1 <0>         0.4941
     33 O3          6.1306    1.0342   -2.0383 O.2       1 <0>        -0.4509
     34 O4          5.2524   -0.0267   -3.7877 O.3       1 <0>        -0.3630
     35 O5          3.6171    2.9540   -3.7762 O.3       1 <0>        -0.5625
     36 C25         2.2761   -8.3775   -2.9168 C.3       1 <0>        -0.1565
     37 C26         1.5113   -5.9288   -1.4952 C.3       1 <0>         0.1534
     38 H7          2.1503   -6.1317   -0.6358 H         1 <0>         0.1065
     39 C27         0.4837   -7.0232   -1.6267 C.ar      1 <0>        -0.1005
     40 C28        -0.2968   -7.1055   -2.7647 C.ar      1 <0>        -0.1114
     41 C29        -1.2394   -8.1094   -2.8853 C.ar      1 <0>        -0.1182
     42 C30        -1.4012   -9.0313   -1.8680 C.ar      1 <0>        -0.1171
     43 C31        -0.6202   -8.9496   -0.7304 C.ar      1 <0>        -0.1181
     44 C32         0.3254   -7.9483   -0.6117 C.ar      1 <0>        -0.1065
     45 O6          0.8509   -4.6748   -1.3122 O.3       1 <0>        -0.5410
     46 H8          0.9910    0.6950   -0.0575 H         1 <0>         0.0571
     47 H9         -0.4476   -0.3480    0.0457 H         1 <0>         0.0583
     48 H10         0.4521    0.0758    1.5219 H         1 <0>         0.0565
     49 H11         2.4136   -1.1932    0.6906 H         1 <0>         0.0683
     50 H12         0.9749   -2.2362    0.7937 H         1 <0>         0.0713
     51 H13        -0.4676   -1.1028   -1.6650 H         1 <0>         0.0703
     52 H14         0.2508   -2.2117   -2.8577 H         1 <0>         0.0647
     53 H15        -0.2881   -2.8310   -1.2783 H         1 <0>         0.0710
     54 H16         3.0646   -0.1880   -1.3951 H         1 <0>         0.0608
     55 H17         2.4672   -0.8192   -2.9485 H         1 <0>         0.0838
     56 H18         1.4603    0.2967   -1.9950 H         1 <0>         0.0721
     57 H19         4.2030   -7.9767   -4.7164 H         1 <0>         0.1154
     58 H20         5.2010   -4.2824   -3.5547 H         1 <0>         0.0829
     59 H21         5.8225   -4.6984   -7.4687 H         1 <0>         0.1052
     60 H22         5.5225   -6.7672   -6.3559 H         1 <0>         0.1173
     61 H23         6.4077   -3.2342   -4.5184 H         1 <0>         0.0535
     62 H24         6.7947   -2.5138   -6.0994 H         1 <0>         0.0497
     63 H25         5.6849   -1.6768   -4.9876 H         1 <0>         0.0907
     64 H26         2.4680   -2.2471   -3.7975 H         1 <0>         0.1051
     65 H27         4.1987   -2.1121   -3.4039 H         1 <0>         0.0710
     66 H28         4.3831   -1.3451   -5.9451 H         1 <0>         0.0953
     67 H29         2.6639   -0.9420   -5.7210 H         1 <0>         0.0833
     68 H30         3.2369    0.4392   -3.7494 H         1 <0>         0.0952
     69 H31         4.9304    1.0558   -6.2145 H         1 <0>         0.0943
     70 H32         3.2242    1.5062   -5.9788 H         1 <0>         0.0975
     71 H33         6.7316    2.1766   -4.7625 H         1 <0>         0.1171
     72 H34         6.1917    3.1579   -3.3754 H         1 <0>         0.1066
     73 H35         3.8294    3.7501   -3.2701 H         1 <0>         0.3858
     74 H36         1.4278   -8.1715   -3.5695 H         1 <0>         0.0653
     75 H37         2.8258   -9.2388   -3.2965 H         1 <0>         0.0522
     76 H38         1.9167   -8.5908   -1.9102 H         1 <0>         0.0704
     77 H39        -0.1703   -6.3852   -3.5594 H         1 <0>         0.1192
     78 H40        -1.8496   -8.1733   -3.7741 H         1 <0>         0.1214
     79 H41        -2.1382   -9.8152   -1.9619 H         1 <0>         0.1210
     80 H42        -0.7469   -9.6697    0.0645 H         1 <0>         0.1222
     81 H43         0.9382   -7.8866    0.2755 H         1 <0>         0.1217
     82 H44         0.2641   -4.4293   -2.0406 H         1 <0>         0.3721
@<TRIPOS>BOND
     1    1    2 1
     2    1   46 1
     3    1   47 1
     4    1   48 1
     5    2    3 1
     6    2   49 1
     7    2   50 1
     8    3    4 1
     9    3    5 1
    10    3    6 1
    11    4   51 1
    12    4   52 1
    13    4   53 1
    14    5   54 1
    15    5   55 1
    16    5   56 1
    17    6    7 2
    18    6    8 1
    19    8    9 1
    20    9   10 1
    21    9   17 1
    22    9   11 1
    23   11   12 1
    24   11   13 1
    25   11   37 1
    26   13   14 1
    27   13   15 1
    28   13   36 1
    29   15   16 2
    30   15   57 1
    31   16   23 1
    32   16   17 1
    33   17   18 1
    34   17   58 1
    35   18   19 1
    36   18   20 1
    37   18   25 1
    38   20   21 1
    39   20   22 1
    40   20   24 1
    41   22   23 2
    42   22   59 1
    43   23   60 1
    44   24   61 1
    45   24   62 1
    46   24   63 1
    47   25   26 1
    48   25   64 1
    49   25   65 1
    50   26   27 1
    51   26   66 1
    52   26   67 1
    53   27   34 1
    54   27   28 1
    55   27   68 1
    56   28   29 1
    57   28   69 1
    58   28   70 1
    59   29   30 1
    60   29   31 1
    61   29   35 1
    62   31   32 1
    63   31   71 1
    64   31   72 1
    65   32   33 2
    66   32   34 1
    67   35   73 1
    68   36   74 1
    69   36   75 1
    70   36   76 1
    71   37   38 1
    72   37   39 1
    73   37   45 1
    74   39   44 ar
    75   39   40 ar
    76   40   41 ar
    77   40   77 1
    78   41   42 ar
    79   41   78 1
    80   42   43 ar
    81   42   79 1
    82   43   44 ar
    83   43   80 1
    84   44   81 1
    85   45   82 1
@<TRIPOS>MOLECULE
CHEMBL331610__3
   82    85     0     0     0
SMALL
USER_CHARGES

@<TRIPOS>ATOM
      1 C1         -2.2458    1.0605   -2.6343 C.3       1 <0>        -0.1574
      2 C2         -1.3930   -0.1596   -2.9878 C.3       1 <0>        -0.1079
      3 C3         -0.1861   -0.2274   -2.0499 C.3       1 <0>        -0.0682
      4 C4          0.5930    1.0872   -2.1255 C.3       1 <0>        -0.1608
      5 C5         -0.6672   -0.4532   -0.6152 C.3       1 <0>        -0.1436
      6 C6          0.7091   -1.3665   -2.4647 C.2       1 <0>         0.4889
      7 O1          0.5059   -1.9466   -3.5049 O.2       1 <0>        -0.5067
      8 O2          1.7321   -1.7366   -1.6785 O.3       1 <0>        -0.3225
      9 C7          2.4268   -2.9326   -2.0379 C.3       1 <0>         0.1166
     10 H1          2.8269   -3.3945   -1.1353 H         1 <0>         0.1032
     11 C8          1.4440   -3.8988   -2.6962 C.3       1 <0>        -0.1887
     12 H2          1.0087   -3.4338   -3.5807 H         1 <0>         0.1678
     13 C9          2.2102   -5.1659   -3.1019 C.3       1 <0>        -0.0466
     14 H3          2.6862   -5.6066   -2.2259 H         1 <0>         0.0762
     15 C10         3.2599   -4.7628   -4.1056 C.2       1 <0>        -0.1361
     16 C11         3.8449   -3.5815   -4.0361 C.2       1 <0>        -0.0852
     17 C12         3.5710   -2.5784   -2.9564 C.3       1 <0>        -0.0633
     18 C13         3.3824   -1.2099   -3.6140 C.3       1 <0>        -0.0725
     19 H4          2.5715   -1.2619   -4.3405 H         1 <0>         0.0795
     20 C14         4.6822   -0.8238   -4.3222 C.3       1 <0>        -0.0552
     21 H5          4.5037    0.0591   -4.9360 H         1 <0>         0.0782
     22 C15         5.1889   -1.9311   -5.1950 C.2       1 <0>        -0.1384
     23 C16         4.8290   -3.1955   -5.0734 C.2       1 <0>        -0.1248
     24 C17         5.7438   -0.4937   -3.2711 C.3       1 <0>        -0.1572
     25 C18         3.0474   -0.1682   -2.5446 C.3       1 <0>        -0.1428
     26 C19         3.7919   -0.5072   -1.2516 C.3       1 <0>        -0.1310
     27 C20         3.5604    0.6025   -0.2239 C.3       1 <0>         0.1083
     28 C21         4.2629    0.2396    1.0871 C.3       1 <0>        -0.1549
     29 C22         4.0638    1.3716    2.1000 C.3       1 <0>         0.1090
     30 H6          2.9993    1.5087    2.2900 H         1 <0>         0.0669
     31 C23         4.6531    2.6643    1.5214 C.3       1 <0>        -0.2059
     32 C24         4.0742    2.8728    0.1391 C.2       1 <0>         0.4910
     33 O3          3.6068    3.9390   -0.1847 O.2       1 <0>        -0.4495
     34 O4          4.0950    1.8341   -0.7216 O.3       1 <0>        -0.3635
     35 O5          4.7296    1.0439    3.3212 O.3       1 <0>        -0.5556
     36 C25         1.2479   -6.1747   -3.7321 C.3       1 <0>        -0.1651
     37 C26         0.3354   -4.2607   -1.7058 C.3       1 <0>         0.1509
     38 H7          0.7630   -4.8086   -0.8661 H         1 <0>         0.1024
     39 C27        -0.6929   -5.1202   -2.3949 C.ar      1 <0>        -0.1009
     40 C28        -1.3456   -4.6498   -3.5190 C.ar      1 <0>        -0.1132
     41 C29        -2.2889   -5.4382   -4.1511 C.ar      1 <0>        -0.1166
     42 C30        -2.5791   -6.6971   -3.6595 C.ar      1 <0>        -0.1172
     43 C31        -1.9257   -7.1679   -2.5359 C.ar      1 <0>        -0.1209
     44 C32        -0.9793   -6.3812   -1.9063 C.ar      1 <0>        -0.1079
     45 O6         -0.2855   -3.0656   -1.2282 O.3       1 <0>        -0.5462
     46 H8         -2.6565    0.9387   -1.6320 H         1 <0>         0.0593
     47 H9         -1.6276    1.9577   -2.6670 H         1 <0>         0.0626
     48 H10        -3.0608    1.1545   -3.3519 H         1 <0>         0.0599
     49 H11        -1.9903   -1.0647   -2.8773 H         1 <0>         0.0663
     50 H12        -1.0481   -0.0755   -4.0183 H         1 <0>         0.0768
     51 H13        -0.0510    1.9097   -1.8143 H         1 <0>         0.0774
     52 H14         1.4594    1.0346   -1.4662 H         1 <0>         0.0789
     53 H15         0.9257    1.2539   -3.1501 H         1 <0>         0.0675
     54 H16        -1.3179   -1.3271   -0.5834 H         1 <0>         0.0719
     55 H17         0.1924   -0.6165    0.0349 H         1 <0>         0.0716
     56 H18        -1.2189    0.4231   -0.2747 H         1 <0>         0.0685
     57 H19         3.5373   -5.4494   -4.8917 H         1 <0>         0.1124
     58 H20         4.4704   -2.5111   -2.3443 H         1 <0>         0.0857
     59 H21         5.8968   -1.6793   -5.9708 H         1 <0>         0.1051
     60 H22         5.2463   -3.9438   -5.7310 H         1 <0>         0.1165
     61 H23         5.9692   -1.3875   -2.6892 H         1 <0>         0.0566
     62 H24         6.6497   -0.1448   -3.7667 H         1 <0>         0.0526
     63 H25         5.3689    0.2863   -2.6084 H         1 <0>         0.0815
     64 H26         3.3522    0.8193   -2.8911 H         1 <0>         0.0648
     65 H27         1.9736   -0.1721   -2.3573 H         1 <0>         0.1048
     66 H28         3.4205   -1.4523   -0.8556 H         1 <0>         0.1023
     67 H29         4.8585   -0.5940   -1.4585 H         1 <0>         0.0932
     68 H30         2.4911    0.7157   -0.0452 H         1 <0>         0.0807
     69 H31         3.8383   -0.6825    1.4841 H         1 <0>         0.0986
     70 H32         5.3280    0.1000    0.9024 H         1 <0>         0.0894
     71 H33         4.3897    3.5067    2.1609 H         1 <0>         0.1060
     72 H34         5.7376    2.5768    1.4562 H         1 <0>         0.1169
     73 H35         4.6447    1.7185    4.0088 H         1 <0>         0.3847
     74 H36         0.6500   -5.6781   -4.4963 H         1 <0>         0.0595
     75 H37         1.8177   -6.9853   -4.1865 H         1 <0>         0.0491
     76 H38         0.5906   -6.5795   -2.9626 H         1 <0>         0.0814
     77 H39        -1.1189   -3.6662   -3.9031 H         1 <0>         0.1276
     78 H40        -2.7994   -5.0704   -5.0289 H         1 <0>         0.1215
     79 H41        -3.3165   -7.3128   -4.1529 H         1 <0>         0.1211
     80 H42        -2.1526   -8.1513   -2.1516 H         1 <0>         0.1224
     81 H43        -0.4661   -6.7504   -1.0307 H         1 <0>         0.1223
     82 H44        -0.7783   -2.5811   -1.9045 H         1 <0>         0.3699
@<TRIPOS>BOND
     1    1    2 1
     2    1   46 1
     3    1   47 1
     4    1   48 1
     5    2    3 1
     6    2   49 1
     7    2   50 1
     8    3    4 1
     9    3    5 1
    10    3    6 1
    11    4   51 1
    12    4   52 1
    13    4   53 1
    14    5   54 1
    15    5   55 1
    16    5   56 1
    17    6    7 2
    18    6    8 1
    19    8    9 1
    20    9   10 1
    21    9   17 1
    22    9   11 1
    23   11   12 1
    24   11   13 1
    25   11   37 1
    26   13   14 1
    27   13   15 1
    28   13   36 1
    29   15   16 2
    30   15   57 1
    31   16   23 1
    32   16   17 1
    33   17   18 1
    34   17   58 1
    35   18   19 1
    36   18   20 1
    37   18   25 1
    38   20   21 1
    39   20   22 1
    40   20   24 1
    41   22   23 2
    42   22   59 1
    43   23   60 1
    44   24   61 1
    45   24   62 1
    46   24   63 1
    47   25   26 1
    48   25   64 1
    49   25   65 1
    50   26   27 1
    51   26   66 1
    52   26   67 1
    53   27   34 1
    54   27   28 1
    55   27   68 1
    56   28   29 1
    57   28   69 1
    58   28   70 1
    59   29   30 1
    60   29   31 1
    61   29   35 1
    62   31   32 1
    63   31   71 1
    64   31   72 1
    65   32   33 2
    66   32   34 1
    67   35   73 1
    68   36   74 1
    69   36   75 1
    70   36   76 1
    71   37   38 1
    72   37   39 1
    73   37   45 1
    74   39   44 ar
    75   39   40 ar
    76   40   41 ar
    77   40   77 1
    78   41   42 ar
    79   41   78 1
    80   42   43 ar
    81   42   79 1
    82   43   44 ar
    83   43   80 1
    84   44   81 1
    85   45   82 1
@<TRIPOS>MOLECULE
CHEMBL154699
   65    69     0     0     0
SMALL
USER_CHARGES

@<TRIPOS>ATOM
      1 C1         -0.0167    1.3791    0.0096 C.ar      1 <0>        -0.1073
      2 C2          1.1686    2.0923    0.0021 C.ar      1 <0>        -0.1257
      3 C3          2.3774    1.4268   -0.0135 C.ar      1 <0>        -0.0774
      4 C4          2.4025    0.0330   -0.0212 C.ar      1 <0>        -0.0521
      5 C5          1.2049   -0.6804   -0.0131 C.ar      1 <0>        -0.1008
      6 C6          0.0021   -0.0041    0.0020 C.ar      1 <0>        -0.1233
      7 C7          3.6981   -0.6879   -0.0385 C.ar      1 <0>         0.1781
      8 C8          3.7081   -2.0797   -0.0518 C.ar      1 <0>        -0.1550
      9 C9          4.9309   -2.7478   -0.0684 C.ar      1 <0>         0.0120
     10 C10         6.1120   -1.9749   -0.0710 C.ar      1 <0>        -0.0989
     11 C11         6.0084   -0.5842   -0.0568 C.ar      1 <0>         0.1642
     12 N1          4.8316    0.0039   -0.0464 N.ar      1 <0>        -0.4672
     13 C12         7.2599    0.2554   -0.0593 C.3       1 <0>        -0.0357
     14 C13         7.2922    1.1265    1.1981 C.3       1 <0>        -0.1049
     15 C14         8.5628    1.9788    1.1955 C.3       1 <0>        -0.1184
     16 C15         8.5741    2.8738   -0.0453 C.3       1 <0>        -0.1204
     17 C16         8.5418    2.0027   -1.3027 C.3       1 <0>        -0.1192
     18 C17         7.2712    1.1503   -1.3002 C.3       1 <0>        -0.1071
     19 C18         7.4349   -2.6279   -0.0878 C.2       1 <0>        -0.0892
     20 C19         7.7102   -3.5924    0.7818 C.2       1 <0>        -0.1445
     21 C20         9.0615   -4.2593    0.7646 C.3       1 <0>         0.1456
     22 C21         9.6986   -4.1591    2.1531 C.3       1 <0>        -0.1477
     23 C22        11.0892   -4.8014    2.1212 C.3       1 <0>         0.1042
     24 H1         11.5513   -4.7206    3.1051 H         1 <0>         0.0816
     25 C23        11.9512   -4.0668    1.0866 C.3       1 <0>        -0.2047
     26 C24        11.1887   -4.0198   -0.2194 C.2       1 <0>         0.4978
     27 O1         11.7145   -4.3431   -1.2581 O.2       1 <0>        -0.4497
     28 O2          9.9048   -3.6062   -0.1908 O.3       1 <0>        -0.3686
     29 O3         10.9721   -6.1788    1.7590 O.3       1 <0>        -0.5634
     30 C25         4.9896   -4.2283   -0.0826 C.ar      1 <0>        -0.0655
     31 C26         5.7887   -4.8877   -1.0160 C.ar      1 <0>        -0.0601
     32 C27         5.8401   -6.2661   -1.0254 C.ar      1 <0>        -0.1520
     33 C28         5.0990   -6.9955   -0.1094 C.ar      1 <0>         0.1087
     34 C29         4.3031   -6.3447    0.8198 C.ar      1 <0>        -0.1528
     35 C30         4.2504   -4.9665    0.8412 C.ar      1 <0>        -0.0741
     36 F1          5.1521   -8.3454   -0.1226 F         1 <0>        -0.1364
     37 H2         -0.9603    1.9042    0.0260 H         1 <0>         0.1242
     38 H3          1.1479    3.1721    0.0082 H         1 <0>         0.1258
     39 H4          3.3021    1.9846   -0.0200 H         1 <0>         0.1349
     40 H5          1.2183   -1.7603   -0.0194 H         1 <0>         0.1253
     41 H6         -0.9264   -0.5557    0.0083 H         1 <0>         0.1263
     42 H7          2.7813   -2.6340   -0.0490 H         1 <0>         0.1398
     43 H8          8.1341   -0.3956   -0.0729 H         1 <0>         0.0893
     44 H9          6.4180    1.7775    1.2116 H         1 <0>         0.0726
     45 H10         7.2841    0.4889    2.0821 H         1 <0>         0.0582
     46 H11         8.5857    2.5994    2.0913 H         1 <0>         0.0629
     47 H12         9.4369    1.3279    1.1820 H         1 <0>         0.0608
     48 H13         7.6999    3.5248   -0.0318 H         1 <0>         0.0629
     49 H14         9.4793    3.4810   -0.0471 H         1 <0>         0.0607
     50 H15         8.5499    2.6403   -2.1868 H         1 <0>         0.0635
     51 H16         9.4160    1.3517   -1.3163 H         1 <0>         0.0615
     52 H17         7.2483    0.5297   -2.1960 H         1 <0>         0.0592
     53 H18         6.3971    1.8013   -1.2867 H         1 <0>         0.0730
     54 H19         8.1794   -2.3212   -0.8076 H         1 <0>         0.1379
     55 H20         6.9657   -3.8991    1.5016 H         1 <0>         0.1328
     56 H21         8.9462   -5.3082    0.4913 H         1 <0>         0.0965
     57 H22         9.7888   -3.1107    2.4371 H         1 <0>         0.0981
     58 H23         9.0738   -4.6803    2.8784 H         1 <0>         0.0995
     59 H24        12.1536   -3.0525    1.4306 H         1 <0>         0.1194
     60 H25        12.8904   -4.6015    0.9447 H         1 <0>         0.1089
     61 H26        11.8166   -6.6482    1.7194 H         1 <0>         0.3871
     62 H27         6.3661   -4.3201   -1.7307 H         1 <0>         0.1351
     63 H28         6.4587   -6.7777   -1.7479 H         1 <0>         0.1392
     64 H29         3.7267   -6.9174    1.5313 H         1 <0>         0.1395
     65 H30         3.6340   -4.4600    1.5691 H         1 <0>         0.1351
@<TRIPOS>BOND
     1    1    6 ar
     2    1    2 ar
     3    1   37 1
     4    2    3 ar
     5    2   38 1
     6    3    4 ar
     7    3   39 1
     8    4    5 ar
     9    4    7 1
    10    5    6 ar
    11    5   40 1
    12    6   41 1
    13    7   12 ar
    14    7    8 ar
    15    8    9 ar
    16    8   42 1
    17    9   10 ar
    18    9   30 1
    19   10   11 ar
    20   10   19 1
    21   11   12 ar
    22   11   13 1
    23   13   18 1
    24   13   14 1
    25   13   43 1
    26   14   15 1
    27   14   44 1
    28   14   45 1
    29   15   16 1
    30   15   46 1
    31   15   47 1
    32   16   17 1
    33   16   48 1
    34   16   49 1
    35   17   18 1
    36   17   50 1
    37   17   51 1
    38   18   52 1
    39   18   53 1
    40   19   20 2
    41   19   54 1
    42   20   21 1
    43   20   55 1
    44   21   28 1
    45   21   22 1
    46   21   56 1
    47   22   23 1
    48   22   57 1
    49   22   58 1
    50   23   24 1
    51   23   25 1
    52   23   29 1
    53   25   26 1
    54   25   59 1
    55   25   60 1
    56   26   27 2
    57   26   28 1
    58   29   61 1
    59   30   35 ar
    60   30   31 ar
    61   31   32 ar
    62   31   62 1
    63   32   33 ar
    64   32   63 1
    65   33   34 ar
    66   33   36 1
    67   34   35 ar
    68   34   64 1
    69   35   65 1
@<TRIPOS>MOLECULE
CHEMBL154699__1
   65    69     0     0     0
SMALL
USER_CHARGES

@<TRIPOS>ATOM
      1 C1         -0.0167    1.3791    0.0096 C.ar      1 <0>        -0.1063
      2 C2          1.1686    2.0923    0.0021 C.ar      1 <0>        -0.1260
      3 C3          2.3774    1.4268   -0.0135 C.ar      1 <0>        -0.0767
      4 C4          2.4025    0.0330   -0.0212 C.ar      1 <0>        -0.0539
      5 C5          1.2049   -0.6804   -0.0131 C.ar      1 <0>        -0.0999
      6 C6          0.0021   -0.0041    0.0020 C.ar      1 <0>        -0.1233
      7 C7          3.6981   -0.6879   -0.0385 C.ar      1 <0>         0.1829
      8 C8          3.7081   -2.0797   -0.0518 C.ar      1 <0>        -0.1568
      9 C9          4.9309   -2.7478   -0.0684 C.ar      1 <0>         0.0207
     10 C10         6.1120   -1.9749   -0.0710 C.ar      1 <0>        -0.1054
     11 C11         6.0084   -0.5842   -0.0568 C.ar      1 <0>         0.1665
     12 N1          4.8316    0.0039   -0.0464 N.ar      1 <0>        -0.4687
     13 C12         7.2599    0.2554   -0.0593 C.3       1 <0>        -0.0352
     14 C13         7.2922    1.1265    1.1981 C.3       1 <0>        -0.1061
     15 C14         8.5628    1.9788    1.1955 C.3       1 <0>        -0.1187
     16 C15         8.5741    2.8738   -0.0453 C.3       1 <0>        -0.1210
     17 C16         8.5418    2.0027   -1.3027 C.3       1 <0>        -0.1189
     18 C17         7.2712    1.1503   -1.3002 C.3       1 <0>        -0.1077
     19 C18         7.4349   -2.6279   -0.0878 C.2       1 <0>        -0.0847
     20 C19         7.7102   -3.5924    0.7818 C.2       1 <0>        -0.1308
     21 C20         9.0615   -4.2593    0.7646 C.3       1 <0>         0.1444
     22 C21         9.7473   -4.0596    2.1187 C.3       1 <0>        -0.1515
     23 C22        11.1026   -4.7740    2.1117 C.3       1 <0>         0.1100
     24 H1         11.7319   -4.3555    1.3262 H         1 <0>         0.0682
     25 C23        10.8747   -6.2676    1.8465 C.3       1 <0>        -0.2056
     26 C24        10.0222   -6.4045    0.6040 C.2       1 <0>         0.4916
     27 O1         10.3375   -7.1583   -0.2861 O.2       1 <0>        -0.4457
     28 O2          8.8999   -5.6607    0.5186 O.3       1 <0>        -0.3585
     29 O3         11.7408   -4.6022    3.3787 O.3       1 <0>        -0.5545
     30 C25         4.9896   -4.2283   -0.0826 C.ar      1 <0>        -0.0703
     31 C26         5.7887   -4.8877   -1.0160 C.ar      1 <0>        -0.0563
     32 C27         5.8401   -6.2661   -1.0254 C.ar      1 <0>        -0.1397
     33 C28         5.0990   -6.9955   -0.1094 C.ar      1 <0>         0.1104
     34 C29         4.3031   -6.3447    0.8198 C.ar      1 <0>        -0.1532
     35 C30         4.2504   -4.9665    0.8412 C.ar      1 <0>        -0.0747
     36 F1          5.1521   -8.3454   -0.1226 F         1 <0>        -0.1371
     37 H2         -0.9603    1.9042    0.0260 H         1 <0>         0.1244
     38 H3          1.1479    3.1721    0.0082 H         1 <0>         0.1260
     39 H4          3.3021    1.9846   -0.0200 H         1 <0>         0.1350
     40 H5          1.2183   -1.7603   -0.0194 H         1 <0>         0.1257
     41 H6         -0.9264   -0.5557    0.0083 H         1 <0>         0.1266
     42 H7          2.7813   -2.6340   -0.0490 H         1 <0>         0.1407
     43 H8          8.1341   -0.3956   -0.0729 H         1 <0>         0.0865
     44 H9          6.4180    1.7775    1.2116 H         1 <0>         0.0734
     45 H10         7.2841    0.4889    2.0821 H         1 <0>         0.0594
     46 H11         8.5857    2.5994    2.0913 H         1 <0>         0.0637
     47 H12         9.4369    1.3279    1.1820 H         1 <0>         0.0612
     48 H13         7.6999    3.5248   -0.0318 H         1 <0>         0.0632
     49 H14         9.4793    3.4810   -0.0471 H         1 <0>         0.0612
     50 H15         8.5499    2.6403   -2.1868 H         1 <0>         0.0638
     51 H16         9.4160    1.3517   -1.3163 H         1 <0>         0.0610
     52 H17         7.2483    0.5297   -2.1960 H         1 <0>         0.0593
     53 H18         6.3971    1.8013   -1.2867 H         1 <0>         0.0740
     54 H19         8.1794   -2.3212   -0.8076 H         1 <0>         0.1302
     55 H20         6.9657   -3.8991    1.5016 H         1 <0>         0.1261
     56 H21         9.6742   -3.8199   -0.0226 H         1 <0>         0.0840
     57 H22         9.8983   -2.9949    2.2964 H         1 <0>         0.1007
     58 H23         9.1212   -4.4753    2.9083 H         1 <0>         0.0927
     59 H24        11.8328   -6.7636    1.6913 H         1 <0>         0.1081
     60 H25        10.3608   -6.7174    2.6961 H         1 <0>         0.1182
     61 H26        12.6056   -5.0298    3.4447 H         1 <0>         0.3862
     62 H27         6.3661   -4.3201   -1.7307 H         1 <0>         0.1318
     63 H28         6.4587   -6.7777   -1.7479 H         1 <0>         0.1380
     64 H29         3.7267   -6.9174    1.5313 H         1 <0>         0.1382
     65 H30         3.6340   -4.4600    1.5691 H         1 <0>         0.1337
@<TRIPOS>BOND
     1    1    6 ar
     2    1    2 ar
     3    1   37 1
     4    2    3 ar
     5    2   38 1
     6    3    4 ar
     7    3   39 1
     8    4    5 ar
     9    4    7 1
    10    5    6 ar
    11    5   40 1
    12    6   41 1
    13    7   12 ar
    14    7    8 ar
    15    8    9 ar
    16    8   42 1
    17    9   10 ar
    18    9   30 1
    19   10   11 ar
    20   10   19 1
    21   11   12 ar
    22   11   13 1
    23   13   18 1
    24   13   14 1
    25   13   43 1
    26   14   15 1
    27   14   44 1
    28   14   45 1
    29   15   16 1
    30   15   46 1
    31   15   47 1
    32   16   17 1
    33   16   48 1
    34   16   49 1
    35   17   18 1
    36   17   50 1
    37   17   51 1
    38   18   52 1
    39   18   53 1
    40   19   20 2
    41   19   54 1
    42   20   21 1
    43   20   55 1
    44   21   28 1
    45   21   22 1
    46   21   56 1
    47   22   23 1
    48   22   57 1
    49   22   58 1
    50   23   24 1
    51   23   25 1
    52   23   29 1
    53   25   26 1
    54   25   59 1
    55   25   60 1
    56   26   27 2
    57   26   28 1
    58   29   61 1
    59   30   35 ar
    60   30   31 ar
    61   31   32 ar
    62   31   62 1
    63   32   33 ar
    64   32   63 1
    65   33   34 ar
    66   33   36 1
    67   34   35 ar
    68   34   64 1
    69   35   65 1
@<TRIPOS>MOLECULE
CHEMBL140527
   57    58     0     0     0
SMALL
USER_CHARGES

@<TRIPOS>ATOM
      1 C1         -0.0184    1.5028    0.0103 C.3       1 <0>        -0.1122
      2 C2          0.0021   -0.0041    0.0020 C.ar      1 <0>        -0.0894
      3 C3          0.0057   -0.6877   -1.2000 C.ar      1 <0>        -0.1165
      4 C4          0.0240   -2.0688   -1.2103 C.ar      1 <0>        -0.0954
      5 C5          0.0391   -2.7702   -0.0132 C.ar      1 <0>         0.0920
      6 C6          0.0359   -2.0821    1.1912 C.ar      1 <0>        -0.0856
      7 C7          0.0229   -0.7005    1.1961 C.ar      1 <0>        -0.1106
      8 C8          0.0523   -2.8407    2.4932 C.3       1 <0>        -0.0464
      9 C9         -1.2470   -2.5348    3.2659 C.3       1 <0>        -0.1011
     10 C10        -1.4760   -3.6325    4.2693 C.3       1 <0>        -0.1209
     11 C11        -0.9070   -3.2887    5.6592 C.3       1 <0>        -0.1168
     12 C12         0.4757   -2.6126    5.5881 C.3       1 <0>        -0.1171
     13 C13         1.3760   -3.2493    4.5642 C.3       1 <0>        -0.1188
     14 C14         1.2437   -2.4674    3.2412 C.3       1 <0>        -0.1086
     15 O1          0.0567   -4.1291   -0.0207 O.3       1 <0>        -0.3181
     16 C15         1.3382   -4.7613   -0.0307 C.3       1 <0>         0.0363
     17 C16         1.1573   -6.2805   -0.0381 C.3       1 <0>         0.1190
     18 C17         2.5245   -6.9575    0.0769 C.3       1 <0>        -0.1846
     19 C18         2.3358   -8.4712    0.1951 C.3       1 <0>         0.1397
     20 H1          1.6708   -8.6903    1.0304 H         1 <0>         0.0947
     21 C19         3.6923   -9.1371    0.4349 C.3       1 <0>        -0.2192
     22 C20         3.4929  -10.6117    0.6734 C.2       1 <0>         0.4908
     23 O2          2.3699  -11.0860    0.6534 O.co2     1 <0>        -0.6803
     24 O3          4.4545  -11.3303    0.8864 O.co2     1 <0>        -0.7128
     25 O4          1.7646   -8.9758   -1.0137 O.3       1 <0>        -0.5269
     26 O5          0.5293   -6.6796   -1.2581 O.3       1 <0>        -0.5315
     27 C21         0.0269   -2.8132   -2.5206 C.3       1 <0>        -0.1145
     28 H2          1.0042    1.8801    0.0026 H         1 <0>         0.0686
     29 H3         -0.5455    1.8639   -0.8728 H         1 <0>         0.0651
     30 H4         -0.5286    1.8543    0.9071 H         1 <0>         0.0650
     31 H5         -0.0061   -0.1413   -2.1315 H         1 <0>         0.1224
     32 H6          0.0245   -0.1642    2.1335 H         1 <0>         0.1222
     33 H7          0.0906   -3.9087    2.2786 H         1 <0>         0.0849
     34 H8         -1.1493   -1.5803    3.7832 H         1 <0>         0.0639
     35 H9         -2.0854   -2.4935    2.5706 H         1 <0>         0.0631
     36 H10        -2.5477   -3.8088    4.3608 H         1 <0>         0.0589
     37 H11        -1.0000   -4.5445    3.9091 H         1 <0>         0.0646
     38 H12        -1.6004   -2.6182    6.1669 H         1 <0>         0.0557
     39 H13        -0.8199   -4.2067    6.2403 H         1 <0>         0.0588
     40 H14         0.3414   -1.5611    5.3345 H         1 <0>         0.0584
     41 H15         0.9516   -2.6795    6.5664 H         1 <0>         0.0564
     42 H16         2.4088   -3.2108    4.9104 H         1 <0>         0.0628
     43 H17         1.0775   -4.2859    4.4082 H         1 <0>         0.0690
     44 H18         2.1222   -2.6627    2.6263 H         1 <0>         0.0562
     45 H19         1.2009   -1.4012    3.4640 H         1 <0>         0.0607
     46 H20         1.8867   -4.4564   -0.9219 H         1 <0>         0.0518
     47 H21         1.8959   -4.4661    0.8580 H         1 <0>         0.0580
     48 H22         0.5334   -6.5762    0.8054 H         1 <0>         0.1051
     49 H23         3.1167   -6.7333   -0.8103 H         1 <0>         0.0652
     50 H24         3.0409   -6.5855    0.9619 H         1 <0>         0.0763
     51 H25         4.3274   -8.9930   -0.4391 H         1 <0>         0.0568
     52 H26         4.1678   -8.6889    1.3074 H         1 <0>         0.0615
     53 H27         2.3040   -8.8160   -1.8003 H         1 <0>         0.3504
     54 H28         1.0300   -6.4480   -2.0523 H         1 <0>         0.3632
     55 H29         1.0552   -2.9791   -2.8420 H         1 <0>         0.0660
     56 H30        -0.4736   -3.7733   -2.3942 H         1 <0>         0.0791
     57 H31        -0.4988   -2.2258   -3.2734 H         1 <0>         0.0650
@<TRIPOS>BOND
     1    1    2 1
     2    1   28 1
     3    1   29 1
     4    1   30 1
     5    2    7 ar
     6    2    3 ar
     7    3    4 ar
     8    3   31 1
     9    4    5 ar
    10    4   27 1
    11    5    6 ar
    12    5   15 1
    13    6    7 ar
    14    6    8 1
    15    7   32 1
    16    8   14 1
    17    8    9 1
    18    8   33 1
    19    9   10 1
    20    9   34 1
    21    9   35 1
    22   10   11 1
    23   10   36 1
    24   10   37 1
    25   11   12 1
    26   11   38 1
    27   11   39 1
    28   12   13 1
    29   12   40 1
    30   12   41 1
    31   13   14 1
    32   13   42 1
    33   13   43 1
    34   14   44 1
    35   14   45 1
    36   15   16 1
    37   16   17 1
    38   16   46 1
    39   16   47 1
    40   17   18 1
    41   17   26 1
    42   17   48 1
    43   18   19 1
    44   18   49 1
    45   18   50 1
    46   19   20 1
    47   19   21 1
    48   19   25 1
    49   21   22 1
    50   21   51 1
    51   21   52 1
    52   22   23 2
    53   22   24 1
    54   25   53 1
    55   26   54 1
    56   27   55 1
    57   27   56 1
    58   27   57 1
@<TRIPOS>MOLECULE
CHEMBL140527__1
   57    58     0     0     0
SMALL
USER_CHARGES

@<TRIPOS>ATOM
      1 C1         -0.0184    1.5028    0.0103 C.3       1 <0>        -0.1123
      2 C2          0.0021   -0.0041    0.0020 C.ar      1 <0>        -0.0893
      3 C3          0.0057   -0.6877   -1.2000 C.ar      1 <0>        -0.1162
      4 C4          0.0240   -2.0688   -1.2103 C.ar      1 <0>        -0.0962
      5 C5          0.0391   -2.7702   -0.0132 C.ar      1 <0>         0.0917
      6 C6          0.0359   -2.0821    1.1912 C.ar      1 <0>        -0.0847
      7 C7          0.0229   -0.7005    1.1961 C.ar      1 <0>        -0.1111
      8 C8          0.0523   -2.8407    2.4932 C.3       1 <0>        -0.0470
      9 C9         -1.2470   -2.5348    3.2659 C.3       1 <0>        -0.1004
     10 C10        -1.4760   -3.6325    4.2693 C.3       1 <0>        -0.1204
     11 C11        -0.9070   -3.2887    5.6592 C.3       1 <0>        -0.1166
     12 C12         0.4757   -2.6126    5.5881 C.3       1 <0>        -0.1172
     13 C13         1.3760   -3.2493    4.5642 C.3       1 <0>        -0.1180
     14 C14         1.2437   -2.4674    3.2412 C.3       1 <0>        -0.1087
     15 O1          0.0567   -4.1291   -0.0207 O.3       1 <0>        -0.3180
     16 C15         1.3382   -4.7613   -0.0307 C.3       1 <0>         0.0370
     17 C16         1.1573   -6.2805   -0.0381 C.3       1 <0>         0.1166
     18 C17         2.5232   -6.9561   -0.1745 C.3       1 <0>        -0.1837
     19 C18         2.3332   -8.4685   -0.3072 C.3       1 <0>         0.1373
     20 H1          1.7486   -8.8366    0.5359 H         1 <0>         0.1041
     21 C19         3.7004   -9.1552   -0.3183 C.3       1 <0>        -0.2185
     22 C20         3.5115  -10.6503   -0.3251 C.2       1 <0>         0.4907
     23 O2          2.3876  -11.1228   -0.3214 O.co2     1 <0>        -0.6799
     24 O3          4.4827  -11.3874   -0.3343 O.co2     1 <0>        -0.7127
     25 O4          1.6453   -8.7571   -1.5260 O.3       1 <0>        -0.5402
     26 O5          0.5419   -6.6929    1.1840 O.3       1 <0>        -0.5434
     27 C21         0.0269   -2.8132   -2.5206 C.3       1 <0>        -0.1147
     28 H2          1.0042    1.8801    0.0026 H         1 <0>         0.0686
     29 H3         -0.5455    1.8639   -0.8728 H         1 <0>         0.0652
     30 H4         -0.5286    1.8543    0.9071 H         1 <0>         0.0650
     31 H5         -0.0061   -0.1413   -2.1315 H         1 <0>         0.1226
     32 H6          0.0245   -0.1642    2.1335 H         1 <0>         0.1220
     33 H7          0.0906   -3.9087    2.2786 H         1 <0>         0.0884
     34 H8         -1.1493   -1.5803    3.7832 H         1 <0>         0.0627
     35 H9         -2.0854   -2.4935    2.5706 H         1 <0>         0.0626
     36 H10        -2.5477   -3.8088    4.3608 H         1 <0>         0.0583
     37 H11        -1.0000   -4.5445    3.9091 H         1 <0>         0.0665
     38 H12        -1.6004   -2.6182    6.1669 H         1 <0>         0.0551
     39 H13        -0.8199   -4.2067    6.2403 H         1 <0>         0.0585
     40 H14         0.3414   -1.5611    5.3345 H         1 <0>         0.0582
     41 H15         0.9516   -2.6795    6.5664 H         1 <0>         0.0559
     42 H16         2.4088   -3.2108    4.9104 H         1 <0>         0.0621
     43 H17         1.0775   -4.2859    4.4082 H         1 <0>         0.0693
     44 H18         2.1222   -2.6627    2.6263 H         1 <0>         0.0554
     45 H19         1.2009   -1.4012    3.4640 H         1 <0>         0.0601
     46 H20         1.8867   -4.4564   -0.9219 H         1 <0>         0.0579
     47 H21         1.8959   -4.4661    0.8580 H         1 <0>         0.0527
     48 H22         0.5247   -6.5671   -0.8782 H         1 <0>         0.1138
     49 H23         3.0304   -6.5745   -1.0607 H         1 <0>         0.0705
     50 H24         3.1246   -6.7416    0.7089 H         1 <0>         0.0718
     51 H25         4.2509   -8.8545   -1.2097 H         1 <0>         0.0569
     52 H26         4.2606   -8.8638    0.5702 H         1 <0>         0.0622
     53 H27         2.1089   -8.4570   -2.3198 H         1 <0>         0.3540
     54 H28         1.0508   -6.4699    1.9754 H         1 <0>         0.3659
     55 H29         1.0552   -2.9791   -2.8420 H         1 <0>         0.0676
     56 H30        -0.4736   -3.7733   -2.3942 H         1 <0>         0.0760
     57 H31        -0.4988   -2.2258   -3.2734 H         1 <0>         0.0660
@<TRIPOS>BOND
     1    1    2 1
     2    1   28 1
     3    1   29 1
     4    1   30 1
     5    2    7 ar
     6    2    3 ar
     7    3    4 ar
     8    3   31 1
     9    4    5 ar
    10    4   27 1
    11    5    6 ar
    12    5   15 1
    13    6    7 ar
    14    6    8 1
    15    7   32 1
    16    8   14 1
    17    8    9 1
    18    8   33 1
    19    9   10 1
    20    9   34 1
    21    9   35 1
    22   10   11 1
    23   10   36 1
    24   10   37 1
    25   11   12 1
    26   11   38 1
    27   11   39 1
    28   12   13 1
    29   12   40 1
    30   12   41 1
    31   13   14 1
    32   13   42 1
    33   13   43 1
    34   14   44 1
    35   14   45 1
    36   15   16 1
    37   16   17 1
    38   16   46 1
    39   16   47 1
    40   17   18 1
    41   17   26 1
    42   17   48 1
    43   18   19 1
    44   18   49 1
    45   18   50 1
    46   19   20 1
    47   19   21 1
    48   19   25 1
    49   21   22 1
    50   21   51 1
    51   21   52 1
    52   22   23 2
    53   22   24 1
    54   25   53 1
    55   26   54 1
    56   27   55 1
    57   27   56 1
    58   27   57 1
@<TRIPOS>MOLECULE
CHEMBL122674
   72    76     0     0     0
SMALL
USER_CHARGES

@<TRIPOS>ATOM
      1 C1         -0.0167    1.3790    0.0096 C.ar      1 <0>        -0.1232
      2 C2          1.1687    2.0919    0.0021 C.ar      1 <0>        -0.1180
      3 C3          2.3774    1.4258   -0.0129 C.ar      1 <0>        -0.1141
      4 C4          2.4022    0.0327   -0.0206 C.ar      1 <0>        -0.0389
      5 C5          1.2051   -0.6804   -0.0130 C.ar      1 <0>        -0.1127
      6 C6          0.0021   -0.0041    0.0020 C.ar      1 <0>        -0.1170
      7 C7          3.6987   -0.6889   -0.0373 C.ar      1 <0>        -0.0502
      8 C8          4.8958    0.0241   -0.0395 C.ar      1 <0>        -0.1178
      9 C9          6.0988   -0.6522   -0.0546 C.ar      1 <0>        -0.1125
     10 C10         6.1176   -2.0352   -0.0680 C.ar      1 <0>        -0.0825
     11 C11         4.9322   -2.7481   -0.0663 C.ar      1 <0>        -0.0574
     12 C12         3.7235   -2.0821   -0.0450 C.ar      1 <0>        -0.1121
     13 C13         7.4343   -2.7680   -0.0849 C.3       1 <0>        -0.0722
     14 C14         7.8907   -3.0298    1.3518 C.3       1 <0>         0.0013
     15 C15         9.2743   -3.6910    1.3425 C.3       1 <0>        -0.1128
     16 C16         9.6287   -4.1692    2.7523 C.3       1 <0>        -0.1176
     17 C17         8.7675   -5.3853    3.1167 C.3       1 <0>        -0.0400
     18 C18         7.3260   -5.0437    2.8336 C.2       1 <0>        -0.2109
     19 C19         6.9225   -3.9693    2.0307 C.2       1 <0>         0.0888
     20 N1          5.6198   -3.9457    1.9899 N.2       1 <0>        -0.2628
     21 N2          5.1251   -5.0057    2.7634 N.pl3     1 <0>        -0.3302
     22 C20         6.1975   -5.6812    3.2824 C.2       1 <0>         0.1240
     23 C21         6.1485   -6.8657    4.1557 C.2       1 <0>        -0.1193
     24 C22         5.3735   -6.8637    5.2350 C.2       1 <0>        -0.1410
     25 C23         5.3233   -8.0760    6.1288 C.3       1 <0>         0.1413
     26 H1          4.3233   -8.5087    6.0983 H         1 <0>         0.1130
     27 C24         5.6578   -7.6655    7.5643 C.3       1 <0>        -0.1814
     28 C25         5.4855   -8.8697    8.4923 C.3       1 <0>         0.1380
     29 H2          4.4799   -9.2747    8.3792 H         1 <0>         0.0940
     30 C26         5.6984   -8.4305    9.9424 C.3       1 <0>        -0.2195
     31 C27         5.4088   -9.5864   10.8650 C.2       1 <0>         0.4907
     32 O1          5.0641  -10.6617   10.4053 O.co2     1 <0>        -0.6809
     33 O2          5.5192   -9.4462   12.0711 O.co2     1 <0>        -0.7124
     34 O3          6.4443   -9.8735    8.1530 O.3       1 <0>        -0.5277
     35 O4          6.2742   -9.0417    5.6756 O.3       1 <0>        -0.5365
     36 C28         3.7746   -5.3179    2.9689 C.ar      1 <0>         0.1496
     37 C29         3.3779   -6.6431    3.0894 C.ar      1 <0>        -0.0965
     38 C30         2.0465   -6.9486    3.2924 C.ar      1 <0>        -0.1302
     39 C31         1.1073   -5.9343    3.3758 C.ar      1 <0>         0.0973
     40 C32         1.5009   -4.6120    3.2554 C.ar      1 <0>        -0.1363
     41 C33         2.8321   -4.3020    3.0581 C.ar      1 <0>        -0.0847
     42 F1         -0.1947   -6.2352    3.5744 F         1 <0>        -0.1348
     43 H3         -0.9603    1.9042    0.0260 H         1 <0>         0.1211
     44 H4          1.1483    3.1717    0.0077 H         1 <0>         0.1224
     45 H5          3.3023    1.9834   -0.0191 H         1 <0>         0.1239
     46 H6          1.2186   -1.7603   -0.0193 H         1 <0>         0.1241
     47 H7         -0.9264   -0.5558    0.0082 H         1 <0>         0.1229
     48 H8          4.8823    1.1040   -0.0299 H         1 <0>         0.1199
     49 H9          7.0273   -0.1005   -0.0564 H         1 <0>         0.1196
     50 H10         4.9525   -3.8278   -0.0771 H         1 <0>         0.1208
     51 H11         2.7986   -2.6396   -0.0392 H         1 <0>         0.1176
     52 H12         7.3150   -3.7174   -0.6069 H         1 <0>         0.0733
     53 H13         8.1807   -2.1622   -0.5986 H         1 <0>         0.0797
     54 H14         7.9359   -2.0890    1.9003 H         1 <0>         0.0906
     55 H15         9.2644   -4.5429    0.6626 H         1 <0>         0.0693
     56 H16        10.0188   -2.9691    1.0068 H         1 <0>         0.0726
     57 H17        10.6820   -4.4472    2.7870 H         1 <0>         0.0697
     58 H18         9.4424   -3.3661    3.4653 H         1 <0>         0.0642
     59 H19         9.0676   -6.2423    2.5138 H         1 <0>         0.0716
     60 H20         8.8893   -5.6184    4.1745 H         1 <0>         0.0719
     61 H21         6.7424   -7.7362    3.9189 H         1 <0>         0.1463
     62 H22         4.7796   -5.9933    5.4718 H         1 <0>         0.1132
     63 H23         6.6889   -7.3153    7.6111 H         1 <0>         0.0657
     64 H24         4.9876   -6.8655    7.8789 H         1 <0>         0.0755
     65 H25         6.7310   -8.1084   10.0766 H         1 <0>         0.0568
     66 H26         5.0268   -7.6038   10.1739 H         1 <0>         0.0611
     67 H27         7.3630   -9.5823    8.2310 H         1 <0>         0.3506
     68 H28         7.1876   -8.7244    5.6762 H         1 <0>         0.3678
     69 H29         4.1100   -7.4344    3.0241 H         1 <0>         0.1438
     70 H30         1.7375   -7.9792    3.3858 H         1 <0>         0.1468
     71 H31         0.7669   -3.8224    3.3204 H         1 <0>         0.1428
     72 H32         3.1393   -3.2705    2.9692 H         1 <0>         0.1408
@<TRIPOS>BOND
     1    1    6 ar
     2    1    2 ar
     3    1   43 1
     4    2    3 ar
     5    2   44 1
     6    3    4 ar
     7    3   45 1
     8    4    5 ar
     9    4    7 1
    10    5    6 ar
    11    5   46 1
    12    6   47 1
    13    7   12 ar
    14    7    8 ar
    15    8    9 ar
    16    8   48 1
    17    9   10 ar
    18    9   49 1
    19   10   11 ar
    20   10   13 1
    21   11   12 ar
    22   11   50 1
    23   12   51 1
    24   13   14 1
    25   13   52 1
    26   13   53 1
    27   14   19 1
    28   14   15 1
    29   14   54 1
    30   15   16 1
    31   15   55 1
    32   15   56 1
    33   16   17 1
    34   16   57 1
    35   16   58 1
    36   17   18 1
    37   17   59 1
    38   17   60 1
    39   18   22 2
    40   18   19 1
    41   19   20 2
    42   20   21 1
    43   21   22 1
    44   21   36 1
    45   22   23 1
    46   23   24 2
    47   23   61 1
    48   24   25 1
    49   24   62 1
    50   25   26 1
    51   25   27 1
    52   25   35 1
    53   27   28 1
    54   27   63 1
    55   27   64 1
    56   28   29 1
    57   28   30 1
    58   28   34 1
    59   30   31 1
    60   30   65 1
    61   30   66 1
    62   31   32 2
    63   31   33 1
    64   34   67 1
    65   35   68 1
    66   36   41 ar
    67   36   37 ar
    68   37   38 ar
    69   37   69 1
    70   38   39 ar
    71   38   70 1
    72   39   40 ar
    73   39   42 1
    74   40   41 ar
    75   40   71 1
    76   41   72 1
@<TRIPOS>MOLECULE
CHEMBL122674__1
   72    76     0     0     0
SMALL
USER_CHARGES

@<TRIPOS>ATOM
      1 C1         -0.0167    1.3790    0.0096 C.ar      1 <0>        -0.1233
      2 C2          1.1687    2.0919    0.0021 C.ar      1 <0>        -0.1169
      3 C3          2.3774    1.4258   -0.0129 C.ar      1 <0>        -0.1120
      4 C4          2.4022    0.0327   -0.0206 C.ar      1 <0>        -0.0390
      5 C5          1.2051   -0.6804   -0.0130 C.ar      1 <0>        -0.1142
      6 C6          0.0021   -0.0041    0.0020 C.ar      1 <0>        -0.1182
      7 C7          3.6987   -0.6889   -0.0373 C.ar      1 <0>        -0.0491
      8 C8          4.8958    0.0241   -0.0395 C.ar      1 <0>        -0.1124
      9 C9          6.0988   -0.6522   -0.0546 C.ar      1 <0>        -0.0599
     10 C10         6.1176   -2.0352   -0.0680 C.ar      1 <0>        -0.0814
     11 C11         4.9322   -2.7481   -0.0663 C.ar      1 <0>        -0.1122
     12 C12         3.7235   -2.0821   -0.0450 C.ar      1 <0>        -0.1172
     13 C13         7.4343   -2.7680   -0.0849 C.3       1 <0>        -0.0728
     14 C14         7.8907   -3.0298    1.3518 C.3       1 <0>         0.0015
     15 C15         9.1818   -3.8573    1.3416 C.3       1 <0>        -0.1133
     16 C16         9.7685   -3.9180    2.7536 C.3       1 <0>        -0.1174
     17 C17        10.3467   -2.5484    3.1319 C.3       1 <0>        -0.0398
     18 C18         9.2981   -1.5009    2.8525 C.2       1 <0>        -0.2105
     19 C19         8.1760   -1.7174    2.0428 C.2       1 <0>         0.0887
     20 N1          7.4701   -0.6222    2.0071 N.2       1 <0>        -0.2625
     21 N2          8.1071    0.3506    2.7911 N.pl3     1 <0>        -0.3305
     22 C20         9.2437   -0.2093    3.3110 C.2       1 <0>         0.1239
     23 C21        10.2208    0.4494    4.1939 C.2       1 <0>        -0.1187
     24 C22        10.7168    1.6378    3.8664 C.2       1 <0>        -0.1418
     25 C23        11.7167    2.3120    4.7700 C.3       1 <0>         0.1413
     26 H1         11.2833    3.2275    5.1725 H         1 <0>         0.1129
     27 C24        12.9770    2.6523    3.9720 C.3       1 <0>        -0.1812
     28 C25        13.9411    3.4466    4.8554 C.3       1 <0>         0.1378
     29 H2         13.4299    4.3225    5.2549 H         1 <0>         0.0939
     30 C26        15.1445    3.8939    4.0232 C.3       1 <0>        -0.2194
     31 C27        16.0327    4.7786    4.8596 C.2       1 <0>         0.4906
     32 O1         15.7312    5.0282    6.0143 O.co2     1 <0>        -0.6809
     33 O2         17.0529    5.2447    4.3816 O.co2     1 <0>        -0.7125
     34 O3         14.3877    2.6225    5.9340 O.3       1 <0>        -0.5277
     35 O4         12.0562    1.4332    5.8445 O.3       1 <0>        -0.5366
     36 C28         7.6606    1.6616    3.0042 C.ar      1 <0>         0.1516
     37 C29         7.8707    2.2768    4.2312 C.ar      1 <0>        -0.0963
     38 C30         7.4303    3.5690    4.4391 C.ar      1 <0>        -0.1292
     39 C31         6.7794    4.2514    3.4248 C.ar      1 <0>         0.0972
     40 C32         6.5685    3.6394    2.2005 C.ar      1 <0>        -0.1361
     41 C33         7.0124    2.3493    1.9867 C.ar      1 <0>        -0.0887
     42 F1          6.3493    5.5155    3.6301 F         1 <0>        -0.1346
     43 H3         -0.9603    1.9042    0.0260 H         1 <0>         0.1212
     44 H4          1.1483    3.1717    0.0077 H         1 <0>         0.1231
     45 H5          3.3023    1.9834   -0.0191 H         1 <0>         0.1237
     46 H6          1.2186   -1.7603   -0.0193 H         1 <0>         0.1239
     47 H7         -0.9264   -0.5558    0.0082 H         1 <0>         0.1224
     48 H8          4.8823    1.1040   -0.0299 H         1 <0>         0.1173
     49 H9          7.0273   -0.1005   -0.0564 H         1 <0>         0.1203
     50 H10         4.9525   -3.8278   -0.0771 H         1 <0>         0.1199
     51 H11         2.7986   -2.6396   -0.0392 H         1 <0>         0.1201
     52 H12         7.3150   -3.7174   -0.6069 H         1 <0>         0.0802
     53 H13         8.1807   -2.1622   -0.5986 H         1 <0>         0.0736
     54 H14         7.1124   -3.5684    1.8924 H         1 <0>         0.0907
     55 H15         8.9620   -4.8677    0.9967 H         1 <0>         0.0728
     56 H16         9.9036   -3.3945    0.6687 H         1 <0>         0.0694
     57 H17         8.9845   -4.1886    3.4609 H         1 <0>         0.0643
     58 H18        10.5596   -4.6671    2.7858 H         1 <0>         0.0697
     59 H19        10.6041   -2.5377    4.1910 H         1 <0>         0.0722
     60 H20        11.2359   -2.3470    2.5346 H         1 <0>         0.0714
     61 H21        10.5342   -0.0333    5.1077 H         1 <0>         0.1463
     62 H22        10.4033    2.1205    2.9525 H         1 <0>         0.1133
     63 H23        13.4594    1.7314    3.6444 H         1 <0>         0.0657
     64 H24        12.7056    3.2498    3.1016 H         1 <0>         0.0755
     65 H25        15.7065    3.0186    3.6975 H         1 <0>         0.0568
     66 H26        14.7974    4.4480    3.1511 H         1 <0>         0.0611
     67 H27        14.8524    1.8229    5.6517 H         1 <0>         0.3506
     68 H28        12.4480    0.5964    5.5593 H         1 <0>         0.3678
     69 H29         8.3779    1.7449    5.0226 H         1 <0>         0.1438
     70 H30         7.5932    4.0477    5.3934 H         1 <0>         0.1471
     71 H31         6.0604    4.1730    1.4109 H         1 <0>         0.1430
     72 H32         6.8520    1.8741    1.0302 H         1 <0>         0.1395
@<TRIPOS>BOND
     1    1    6 ar
     2    1    2 ar
     3    1   43 1
     4    2    3 ar
     5    2   44 1
     6    3    4 ar
     7    3   45 1
     8    4    5 ar
     9    4    7 1
    10    5    6 ar
    11    5   46 1
    12    6   47 1
    13    7   12 ar
    14    7    8 ar
    15    8    9 ar
    16    8   48 1
    17    9   10 ar
    18    9   49 1
    19   10   11 ar
    20   10   13 1
    21   11   12 ar
    22   11   50 1
    23   12   51 1
    24   13   14 1
    25   13   52 1
    26   13   53 1
    27   14   19 1
    28   14   15 1
    29   14   54 1
    30   15   16 1
    31   15   55 1
    32   15   56 1
    33   16   17 1
    34   16   57 1
    35   16   58 1
    36   17   18 1
    37   17   59 1
    38   17   60 1
    39   18   22 2
    40   18   19 1
    41   19   20 2
    42   20   21 1
    43   21   22 1
    44   21   36 1
    45   22   23 1
    46   23   24 2
    47   23   61 1
    48   24   25 1
    49   24   62 1
    50   25   26 1
    51   25   27 1
    52   25   35 1
    53   27   28 1
    54   27   63 1
    55   27   64 1
    56   28   29 1
    57   28   30 1
    58   28   34 1
    59   30   31 1
    60   30   65 1
    61   30   66 1
    62   31   32 2
    63   31   33 1
    64   34   67 1
    65   35   68 1
    66   36   41 ar
    67   36   37 ar
    68   37   38 ar
    69   37   69 1
    70   38   39 ar
    71   38   70 1
    72   39   40 ar
    73   39   42 1
    74   40   41 ar
    75   40   71 1
    76   41   72 1
@<TRIPOS>MOLECULE
CHEMBL352790
   63    66     0     0     0
SMALL
USER_CHARGES

@<TRIPOS>ATOM
      1 C1          1.4322    0.5372    0.0085 C.3       1 <0>        -0.1423
      2 C2          1.1546   -0.9390    0.2993 C.3       1 <0>        -0.0591
      3 H1          1.8702   -1.5620   -0.2372 H         1 <0>         0.0849
      4 C3         -0.2737   -1.2951   -0.1357 C.3       1 <0>        -0.1306
      5 C4         -0.5063   -2.7783    0.1450 C.3       1 <0>         0.0923
      6 H2          0.1972   -3.3655   -0.4452 H         1 <0>         0.0863
      7 C5         -0.3201   -3.1117    1.6064 C.3       1 <0>        -0.0434
      8 C6         -1.6560   -3.1974    2.3482 C.3       1 <0>        -0.0619
      9 H3         -2.0939   -2.2025    2.4288 H         1 <0>         0.0747
     10 C7         -1.4051   -3.7623    3.7473 C.3       1 <0>        -0.0601
     11 H4         -2.3170   -3.6692    4.3372 H         1 <0>         0.0824
     12 C8         -0.2952   -3.0373    4.4455 C.2       1 <0>        -0.1383
     13 C9          0.6190   -2.3100    3.8273 C.2       1 <0>        -0.1240
     14 C10         0.5700   -2.1638    2.3541 C.2       1 <0>        -0.0858
     15 C11         1.2627   -1.1968    1.7800 C.2       1 <0>        -0.1376
     16 C12        -1.0361   -5.2424    3.6293 C.3       1 <0>        -0.1572
     17 C13        -2.6096   -4.1174    1.5833 C.3       1 <0>        -0.1211
     18 C14        -3.7159   -4.6004    2.5234 C.3       1 <0>        -0.1358
     19 C15        -4.6047   -5.6070    1.7902 C.3       1 <0>         0.1084
     20 C16        -5.7456   -6.0474    2.7113 C.3       1 <0>        -0.1541
     21 C17        -6.6094   -7.0861    1.9888 C.3       1 <0>         0.1046
     22 H5         -7.4156   -7.4116    2.6462 H         1 <0>         0.0784
     23 C18        -5.7323   -8.2884    1.6169 C.3       1 <0>        -0.2057
     24 C19        -4.5147   -7.7774    0.8783 C.2       1 <0>         0.4949
     25 O1         -4.1679   -8.2745   -0.1670 O.2       1 <0>        -0.4520
     26 O2         -3.8271   -6.7512    1.4206 O.3       1 <0>        -0.3648
     27 O3         -7.1617   -6.5087    0.8040 O.3       1 <0>        -0.5623
     28 O4         -1.8381   -3.1216   -0.2427 O.3       1 <0>        -0.3157
     29 C20        -2.0324   -3.4563   -1.5332 C.2       1 <0>         0.4976
     30 O5         -1.0824   -3.5611   -2.2833 O.2       1 <0>        -0.4983
     31 C21        -3.3994   -3.6956   -2.0358 C.ar      1 <0>        -0.1369
     32 C22        -4.5020   -3.4429   -1.2161 C.ar      1 <0>        -0.0425
     33 C23        -5.7762   -3.6677   -1.6907 C.ar      1 <0>        -0.1602
     34 C24        -5.9649   -4.1443   -2.9792 C.ar      1 <0>         0.1371
     35 C25        -4.8741   -4.3970   -3.7973 C.ar      1 <0>        -0.1632
     36 C26        -3.5956   -4.1703   -3.3350 C.ar      1 <0>        -0.0246
     37 F1         -7.2161   -4.3638   -3.4391 F         1 <0>        -0.1306
     38 H6          2.4423    0.7877    0.3327 H         1 <0>         0.0595
     39 H7          1.3383    0.7206   -1.0619 H         1 <0>         0.0584
     40 H8          0.7139    1.1550    0.5474 H         1 <0>         0.0575
     41 H9         -0.9893   -0.6978    0.4292 H         1 <0>         0.0769
     42 H10        -0.3923   -1.1001   -1.2016 H         1 <0>         0.0729
     43 H11         0.1325   -4.1016    1.6638 H         1 <0>         0.0859
     44 H12        -0.2388   -3.1135    5.5214 H         1 <0>         0.1066
     45 H13         1.3990   -1.8237    4.3944 H         1 <0>         0.1184
     46 H14         1.9158   -0.5809    2.3805 H         1 <0>         0.1162
     47 H15        -0.1349   -5.3451    3.0249 H         1 <0>         0.0557
     48 H16        -0.8557   -5.6522    4.6231 H         1 <0>         0.0534
     49 H17        -1.8548   -5.7843    3.1559 H         1 <0>         0.0774
     50 H18        -3.0530   -3.5702    0.7514 H         1 <0>         0.1061
     51 H19        -2.0575   -4.9757    1.2006 H         1 <0>         0.0712
     52 H20        -3.2689   -5.0780    3.3953 H         1 <0>         0.0900
     53 H21        -4.3177   -3.7499    2.8436 H         1 <0>         0.0853
     54 H22        -5.0178   -5.1430    0.8946 H         1 <0>         0.0837
     55 H23        -5.3314   -6.4868    3.6188 H         1 <0>         0.0951
     56 H24        -6.3571   -5.1834    2.9715 H         1 <0>         0.0976
     57 H25        -5.4211   -8.8100    2.5219 H         1 <0>         0.1173
     58 H26        -6.2932   -8.9678    0.9750 H         1 <0>         0.1065
     59 H27        -7.7209   -7.1123    0.2961 H         1 <0>         0.3858
     60 H28        -4.3562   -3.0724   -0.2121 H         1 <0>         0.1479
     61 H29        -6.6294   -3.4727   -1.0579 H         1 <0>         0.1462
     62 H30        -5.0268   -4.7684   -4.7998 H         1 <0>         0.1466
     63 H31        -2.7470   -4.3631   -3.9746 H         1 <0>         0.1481
@<TRIPOS>BOND
     1    1    2 1
     2    1   38 1
     3    1   39 1
     4    1   40 1
     5    2    3 1
     6    2   15 1
     7    2    4 1
     8    4    5 1
     9    4   41 1
    10    4   42 1
    11    5    6 1
    12    5    7 1
    13    5   28 1
    14    7   14 1
    15    7    8 1
    16    7   43 1
    17    8    9 1
    18    8   10 1
    19    8   17 1
    20   10   11 1
    21   10   12 1
    22   10   16 1
    23   12   13 2
    24   12   44 1
    25   13   14 1
    26   13   45 1
    27   14   15 2
    28   15   46 1
    29   16   47 1
    30   16   48 1
    31   16   49 1
    32   17   18 1
    33   17   50 1
    34   17   51 1
    35   18   19 1
    36   18   52 1
    37   18   53 1
    38   19   26 1
    39   19   20 1
    40   19   54 1
    41   20   21 1
    42   20   55 1
    43   20   56 1
    44   21   22 1
    45   21   23 1
    46   21   27 1
    47   23   24 1
    48   23   57 1
    49   23   58 1
    50   24   25 2
    51   24   26 1
    52   27   59 1
    53   28   29 1
    54   29   30 2
    55   29   31 1
    56   31   36 ar
    57   31   32 ar
    58   32   33 ar
    59   32   60 1
    60   33   34 ar
    61   33   61 1
    62   34   35 ar
    63   34   37 1
    64   35   36 ar
    65   35   62 1
    66   36   63 1
@<TRIPOS>MOLECULE
CHEMBL352790__1
   63    66     0     0     0
SMALL
USER_CHARGES

@<TRIPOS>ATOM
      1 C1          1.3322   -0.1137    0.2421 C.3       1 <0>        -0.1428
      2 C2          1.0408   -1.5448    0.6981 C.3       1 <0>        -0.0584
      3 H1          1.8177   -2.2149    0.3300 H         1 <0>         0.0850
      4 C3         -0.3273   -1.9921    0.1650 C.3       1 <0>        -0.1315
      5 C4         -0.5727   -3.4302    0.6169 C.3       1 <0>         0.0928
      6 H2          0.1975   -4.0725    0.1898 H         1 <0>         0.0877
      7 C5         -0.5437   -3.5616    2.1213 C.3       1 <0>        -0.0462
      8 C6         -1.9516   -3.5821    2.7210 C.3       1 <0>        -0.0633
      9 H3         -2.4067   -2.5969    2.6194 H         1 <0>         0.0775
     10 C7         -1.8489   -3.9494    4.2022 C.3       1 <0>        -0.0590
     11 H4         -2.8207   -3.8022    4.6734 H         1 <0>         0.0825
     12 C8         -0.8300   -3.1098    4.9108 C.2       1 <0>        -0.1367
     13 C9          0.1382   -2.4479    4.3012 C.2       1 <0>        -0.1252
     14 C10         0.2488   -2.5001    2.8250 C.2       1 <0>        -0.0865
     15 C11         0.9894   -1.6006    2.2030 C.2       1 <0>        -0.1379
     16 C12        -1.4528   -5.4221    4.3251 C.3       1 <0>        -0.1533
     17 C13        -2.8057   -4.6198    1.9898 C.3       1 <0>        -0.1109
     18 C14        -1.9329   -5.8136    1.5973 C.3       1 <0>        -0.1415
     19 C15        -2.7916   -6.8612    0.8860 C.3       1 <0>         0.1056
     20 C16        -1.9102   -8.0353    0.4517 C.3       1 <0>        -0.1570
     21 C17        -2.7800   -9.1007   -0.2231 C.3       1 <0>         0.1103
     22 H5         -3.2658   -8.6736   -1.1005 H         1 <0>         0.0645
     23 C18        -3.8450   -9.5758    0.7736 C.3       1 <0>        -0.2060
     24 C19        -4.5564   -8.3592    1.3241 C.2       1 <0>         0.4906
     25 O1         -5.7631   -8.3058    1.3546 O.2       1 <0>        -0.4474
     26 O2         -3.8047   -7.3359    1.7799 O.3       1 <0>        -0.3601
     27 O3         -1.9639  -10.2052   -0.6181 O.3       1 <0>        -0.5541
     28 O4         -1.8503   -3.8562    0.1390 O.3       1 <0>        -0.3160
     29 C20        -1.9021   -4.3459   -1.1150 C.2       1 <0>         0.4948
     30 O5         -0.8774   -4.5053   -1.7477 O.2       1 <0>        -0.4952
     31 C21        -3.2040   -4.6887   -1.7202 C.ar      1 <0>        -0.1463
     32 C22        -4.3912   -4.3751   -1.0539 C.ar      1 <0>        -0.0414
     33 C23        -5.6040   -4.6972   -1.6239 C.ar      1 <0>        -0.1630
     34 C24        -5.6472   -5.3316   -2.8562 C.ar      1 <0>         0.1393
     35 C25        -4.4719   -5.6452   -3.5220 C.ar      1 <0>        -0.1654
     36 C26        -3.2537   -5.3227   -2.9641 C.ar      1 <0>        -0.0267
     37 F1         -6.8388   -5.6458   -3.4099 F         1 <0>        -0.1280
     38 H6          2.2979    0.2035    0.6355 H         1 <0>         0.0599
     39 H7          1.3537   -0.0767   -0.8471 H         1 <0>         0.0584
     40 H8          0.5525    0.5517    0.6128 H         1 <0>         0.0577
     41 H9         -1.1070   -1.3436    0.5646 H         1 <0>         0.0779
     42 H10        -0.3309   -1.9436   -0.9239 H         1 <0>         0.0736
     43 H11        -0.0891   -4.5231    2.3598 H         1 <0>         0.0895
     44 H12        -0.8907   -3.0409    5.9868 H         1 <0>         0.1073
     45 H13         0.8461   -1.8707    4.8775 H         1 <0>         0.1187
     46 H14         1.5660   -0.8938    2.7813 H         1 <0>         0.1164
     47 H15        -0.5702   -5.6131    3.7147 H         1 <0>         0.0602
     48 H16        -1.2308   -5.6529    5.3670 H         1 <0>         0.0545
     49 H17        -2.2751   -6.0495    3.9812 H         1 <0>         0.0729
     50 H18        -3.6086   -4.9567    2.6455 H         1 <0>         0.0710
     51 H19        -3.2330   -4.1717    1.0928 H         1 <0>         0.0954
     52 H20        -1.1395   -5.4794    0.9288 H         1 <0>         0.0877
     53 H21        -1.4927   -6.2519    2.4930 H         1 <0>         0.0969
     54 H22        -3.2602   -6.4135    0.0096 H         1 <0>         0.0751
     55 H23        -1.1557   -7.6829   -0.2515 H         1 <0>         0.0953
     56 H24        -1.4208   -8.4654    1.3255 H         1 <0>         0.0921
     57 H25        -4.5612  -10.2219    0.2659 H         1 <0>         0.1067
     58 H26        -3.3686  -10.1225    1.5874 H         1 <0>         0.1181
     59 H27        -2.4509  -10.9185   -1.0529 H         1 <0>         0.3850
     60 H28        -4.3587   -3.8816   -0.0938 H         1 <0>         0.1526
     61 H29        -6.5224   -4.4552   -1.1097 H         1 <0>         0.1480
     62 H30        -4.5115   -6.1397   -4.4814 H         1 <0>         0.1484
     63 H31        -2.3391   -5.5634   -3.4856 H         1 <0>         0.1499
@<TRIPOS>BOND
     1    1    2 1
     2    1   38 1
     3    1   39 1
     4    1   40 1
     5    2    3 1
     6    2   15 1
     7    2    4 1
     8    4    5 1
     9    4   41 1
    10    4   42 1
    11    5    6 1
    12    5    7 1
    13    5   28 1
    14    7   14 1
    15    7    8 1
    16    7   43 1
    17    8    9 1
    18    8   10 1
    19    8   17 1
    20   10   11 1
    21   10   12 1
    22   10   16 1
    23   12   13 2
    24   12   44 1
    25   13   14 1
    26   13   45 1
    27   14   15 2
    28   15   46 1
    29   16   47 1
    30   16   48 1
    31   16   49 1
    32   17   18 1
    33   17   50 1
    34   17   51 1
    35   18   19 1
    36   18   52 1
    37   18   53 1
    38   19   26 1
    39   19   20 1
    40   19   54 1
    41   20   21 1
    42   20   55 1
    43   20   56 1
    44   21   22 1
    45   21   23 1
    46   21   27 1
    47   23   24 1
    48   23   57 1
    49   23   58 1
    50   24   25 2
    51   24   26 1
    52   27   59 1
    53   28   29 1
    54   29   30 2
    55   29   31 1
    56   31   36 ar
    57   31   32 ar
    58   32   33 ar
    59   32   60 1
    60   33   34 ar
    61   33   61 1
    62   34   35 ar
    63   34   37 1
    64   35   36 ar
    65   35   62 1
    66   36   63 1
@<TRIPOS>MOLECULE
CHEMBL352790__2
   63    66     0     0     0
SMALL
USER_CHARGES

@<TRIPOS>ATOM
      1 C1         -0.4063    1.5719   -0.0787 C.3       1 <0>        -0.1342
      2 C2         -0.3145    0.0446   -0.0858 C.3       1 <0>        -0.0566
      3 H1          0.0672   -0.2978   -1.0476 H         1 <0>         0.0786
      4 C3         -1.7019   -0.5609    0.1685 C.3       1 <0>        -0.1370
      5 C4         -2.2161   -0.0390    1.5086 C.3       1 <0>         0.1029
      6 H2         -3.1979   -0.4701    1.7040 H         1 <0>         0.0889
      7 C5         -1.2880   -0.3946    2.6461 C.3       1 <0>        -0.0445
      8 C6         -1.7750   -1.6222    3.4193 C.3       1 <0>        -0.0729
      9 H3         -2.8203   -1.4880    3.6976 H         1 <0>         0.0808
     10 C7         -0.9242   -1.7772    4.6809 C.3       1 <0>        -0.0575
     11 H4         -1.1731   -0.9773    5.3782 H         1 <0>         0.0832
     12 C8          0.5405   -1.7171    4.3708 C.2       1 <0>        -0.1385
     13 C9          1.0433   -1.1934    3.2662 C.2       1 <0>        -0.1272
     14 C10         0.1356   -0.6334    2.2383 C.2       1 <0>        -0.0686
     15 C11         0.5992   -0.4171    1.0198 C.2       1 <0>        -0.1460
     16 C12        -1.2399   -3.1244    5.3336 C.3       1 <0>        -0.1505
     17 C13        -1.6331   -2.8694    2.5444 C.3       1 <0>        -0.1172
     18 C14        -0.1499   -3.1959    2.3586 C.3       1 <0>        -0.1566
     19 C15        -0.0097   -4.5190    1.6032 C.3       1 <0>         0.1071
     20 C16         1.4691   -4.9067    1.5216 C.3       1 <0>        -0.1507
     21 C17         1.6092   -6.2103    0.7289 C.3       1 <0>         0.1038
     22 H5          2.6622   -6.4829    0.6577 H         1 <0>         0.0778
     23 C18         1.0367   -5.9989   -0.6785 C.3       1 <0>        -0.2051
     24 C19        -0.3573   -5.4265   -0.5429 C.2       1 <0>         0.4947
     25 O1         -1.2859   -5.9008   -1.1534 O.2       1 <0>        -0.4553
     26 O2         -0.5335   -4.3711    0.2787 O.3       1 <0>        -0.3651
     27 O3          0.8886   -7.2523    1.3899 O.3       1 <0>        -0.5635
     28 O4         -2.3387    1.3829    1.4378 O.3       1 <0>        -0.3331
     29 C20        -3.5211    1.8748    1.0194 C.2       1 <0>         0.5061
     30 O5         -4.4234    1.1172    0.7228 O.2       1 <0>        -0.5001
     31 C21        -3.7203    3.3340    0.9213 C.ar      1 <0>        -0.1391
     32 C22        -2.6826    4.2073    1.2562 C.ar      1 <0>        -0.0317
     33 C23        -2.8741    5.5689    1.1623 C.ar      1 <0>        -0.1673
     34 C24        -4.0940    6.0725    0.7368 C.ar      1 <0>         0.1368
     35 C25        -5.1275    5.2103    0.4032 C.ar      1 <0>        -0.1653
     36 C26        -4.9454    3.8468    0.4878 C.ar      1 <0>        -0.0250
     37 F1         -4.2765    7.4081    0.6475 F         1 <0>        -0.1303
     38 H6          0.4444    1.9895   -0.6172 H         1 <0>         0.0484
     39 H7         -1.3315    1.8825   -0.5640 H         1 <0>         0.0506
     40 H8         -0.3971    1.9316    0.9502 H         1 <0>         0.0700
     41 H9         -2.3841   -0.2631   -0.6277 H         1 <0>         0.0717
     42 H10        -1.6276   -1.6479    0.2018 H         1 <0>         0.0944
     43 H11        -1.2930    0.4387    3.3487 H         1 <0>         0.0909
     44 H12         1.2285   -2.1278    5.0949 H         1 <0>         0.1115
     45 H13         2.1123   -1.1738    3.1137 H         1 <0>         0.1217
     46 H14         1.6474   -0.5740    0.8126 H         1 <0>         0.1134
     47 H15        -0.9267   -3.9314    4.6712 H         1 <0>         0.0629
     48 H16        -0.7056   -3.2035    6.2804 H         1 <0>         0.0572
     49 H17        -2.3123   -3.1982    5.5143 H         1 <0>         0.0593
     50 H18        -2.1326   -3.7099    3.0262 H         1 <0>         0.0659
     51 H19        -2.0891   -2.6847    1.5718 H         1 <0>         0.0738
     52 H20         0.3288   -2.3996    1.7887 H         1 <0>         0.1135
     53 H21         0.3281   -3.2822    3.3344 H         1 <0>         0.1056
     54 H22        -0.5624   -5.2981    2.1282 H         1 <0>         0.0781
     55 H23         2.0256   -4.1147    1.0204 H         1 <0>         0.0941
     56 H24         1.8639   -5.0486    2.5276 H         1 <0>         0.0953
     57 H25         1.6677   -5.3027   -1.2311 H         1 <0>         0.1172
     58 H26         0.9928   -6.9526   -1.2044 H         1 <0>         0.1061
     59 H27         0.9344   -8.1078    0.9415 H         1 <0>         0.3856
     60 H28        -1.7323    3.8162    1.5884 H         1 <0>         0.1491
     61 H29        -2.0726    6.2450    1.4209 H         1 <0>         0.1460
     62 H30        -6.0757    5.6079    0.0727 H         1 <0>         0.1473
     63 H31        -5.7496    3.1761    0.2234 H         1 <0>         0.1488
@<TRIPOS>BOND
     1    1    2 1
     2    1   38 1
     3    1   39 1
     4    1   40 1
     5    2    3 1
     6    2   15 1
     7    2    4 1
     8    4    5 1
     9    4   41 1
    10    4   42 1
    11    5    6 1
    12    5    7 1
    13    5   28 1
    14    7   14 1
    15    7    8 1
    16    7   43 1
    17    8    9 1
    18    8   10 1
    19    8   17 1
    20   10   11 1
    21   10   12 1
    22   10   16 1
    23   12   13 2
    24   12   44 1
    25   13   14 1
    26   13   45 1
    27   14   15 2
    28   15   46 1
    29   16   47 1
    30   16   48 1
    31   16   49 1
    32   17   18 1
    33   17   50 1
    34   17   51 1
    35   18   19 1
    36   18   52 1
    37   18   53 1
    38   19   26 1
    39   19   20 1
    40   19   54 1
    41   20   21 1
    42   20   55 1
    43   20   56 1
    44   21   22 1
    45   21   23 1
    46   21   27 1
    47   23   24 1
    48   23   57 1
    49   23   58 1
    50   24   25 2
    51   24   26 1
    52   27   59 1
    53   28   29 1
    54   29   30 2
    55   29   31 1
    56   31   36 ar
    57   31   32 ar
    58   32   33 ar
    59   32   60 1
    60   33   34 ar
    61   33   61 1
    62   34   35 ar
    63   34   37 1
    64   35   36 ar
    65   35   62 1
    66   36   63 1
@<TRIPOS>MOLECULE
CHEMBL352790__3
   63    66     0     0     0
SMALL
USER_CHARGES

@<TRIPOS>ATOM
      1 C1         -0.4080    1.5709   -0.0807 C.3       1 <0>        -0.1347
      2 C2         -0.3159    0.0437   -0.0872 C.3       1 <0>        -0.0576
      3 H1          0.0657   -0.2991   -1.0489 H         1 <0>         0.0799
      4 C3         -1.7031   -0.5620    0.1678 C.3       1 <0>        -0.1361
      5 C4         -2.2171   -0.0397    1.5078 C.3       1 <0>         0.1023
      6 H2         -3.1988   -0.4710    1.7035 H         1 <0>         0.0900
      7 C5         -1.2886   -0.3946    2.6451 C.3       1 <0>        -0.0471
      8 C6         -1.7752   -1.6220    3.4191 C.3       1 <0>        -0.0715
      9 H3         -2.8205   -1.4879    3.6975 H         1 <0>         0.0816
     10 C7         -0.9240   -1.7762    4.6804 C.3       1 <0>        -0.0576
     11 H4         -1.1730   -0.9760    5.3775 H         1 <0>         0.0830
     12 C8          0.5406   -1.7159    4.3700 C.2       1 <0>        -0.1298
     13 C9          1.0430   -1.1925    3.2651 C.2       1 <0>        -0.1354
     14 C10         0.1349   -0.6332    2.2371 C.2       1 <0>        -0.0655
     15 C11         0.5982   -0.4173    1.0185 C.2       1 <0>        -0.1533
     16 C12        -1.2393   -3.1232    5.3339 C.3       1 <0>        -0.1528
     17 C13        -1.6332   -2.8695    2.5447 C.3       1 <0>        -0.1190
     18 C14        -0.1500   -3.1957    2.3587 C.3       1 <0>        -0.1540
     19 C15        -0.0097   -4.5188    1.6033 C.3       1 <0>         0.1055
     20 C16         1.4693   -4.7866    1.3116 C.3       1 <0>        -0.1518
     21 C17         1.6095   -6.1318    0.5920 C.3       1 <0>         0.1083
     22 H5          1.0585   -6.1021   -0.3480 H         1 <0>         0.0659
     23 C18         1.0363   -7.2362    1.4890 C.3       1 <0>        -0.2048
     24 C19        -0.3579   -6.8283    1.9123 C.2       1 <0>         0.4906
     25 O1         -1.2867   -7.5947    1.8133 O.2       1 <0>        -0.4505
     26 O2         -0.5341   -5.5842    2.4036 O.3       1 <0>        -0.3638
     27 O3          2.9897   -6.3928    0.3298 O.3       1 <0>        -0.5557
     28 O4         -2.3400    1.3822    1.4363 O.3       1 <0>        -0.3325
     29 C20        -3.5227    1.8736    1.0180 C.2       1 <0>         0.5069
     30 O5         -4.4249    1.1157    0.7220 O.2       1 <0>        -0.5007
     31 C21        -3.7223    3.3327    0.9194 C.ar      1 <0>        -0.1401
     32 C22        -2.6847    4.2064    1.2536 C.ar      1 <0>        -0.0315
     33 C23        -2.8764    5.5679    1.1592 C.ar      1 <0>        -0.1672
     34 C24        -4.0966    6.0710    0.7338 C.ar      1 <0>         0.1375
     35 C25        -5.1300    5.2085    0.4007 C.ar      1 <0>        -0.1654
     36 C26        -4.9476    3.8450    0.4859 C.ar      1 <0>        -0.0247
     37 F1         -4.2794    7.4066    0.6439 F         1 <0>        -0.1300
     38 H6          0.4426    1.9885   -0.6194 H         1 <0>         0.0495
     39 H7         -1.3334    1.8812   -0.5661 H         1 <0>         0.0509
     40 H8         -0.3990    1.9311    0.9480 H         1 <0>         0.0706
     41 H9         -2.3856   -0.2648   -0.6284 H         1 <0>         0.0738
     42 H10        -1.6286   -1.6490    0.2015 H         1 <0>         0.0865
     43 H11        -1.2937    0.4390    3.3474 H         1 <0>         0.0926
     44 H12         1.2289   -2.1261    5.0941 H         1 <0>         0.1116
     45 H13         2.1119   -1.1728    3.1123 H         1 <0>         0.1226
     46 H14         1.6464   -0.5741    0.8110 H         1 <0>         0.1158
     47 H15        -0.9260   -3.9304    4.6718 H         1 <0>         0.0702
     48 H16        -0.7048   -3.2017    6.2806 H         1 <0>         0.0556
     49 H17        -2.3116   -3.1971    5.5148 H         1 <0>         0.0583
     50 H18        -2.1324   -3.7099    3.0269 H         1 <0>         0.0770
     51 H19        -2.0894   -2.6853    1.5720 H         1 <0>         0.0652
     52 H20         0.3285   -2.3994    1.7887 H         1 <0>         0.1220
     53 H21         0.3282   -3.2820    3.3344 H         1 <0>         0.1005
     54 H22        -0.5618   -4.4626    0.6652 H         1 <0>         0.0730
     55 H23         1.8646   -3.9924    0.6784 H         1 <0>         0.0967
     56 H24         2.0253   -4.8157    2.2487 H         1 <0>         0.0897
     57 H25         0.9924   -8.1739    0.9349 H         1 <0>         0.1059
     58 H26         1.6667   -7.3584    2.3698 H         1 <0>         0.1170
     59 H27         3.1521   -7.2305   -0.1251 H         1 <0>         0.3849
     60 H28        -1.7342    3.8157    1.5857 H         1 <0>         0.1491
     61 H29        -2.0750    6.2443    1.4173 H         1 <0>         0.1462
     62 H30        -6.0784    5.6057    0.0704 H         1 <0>         0.1475
     63 H31        -5.7516    3.1740    0.2220 H         1 <0>         0.1488
@<TRIPOS>BOND
     1    1    2 1
     2    1   38 1
     3    1   39 1
     4    1   40 1
     5    2    3 1
     6    2   15 1
     7    2    4 1
     8    4    5 1
     9    4   41 1
    10    4   42 1
    11    5    6 1
    12    5    7 1
    13    5   28 1
    14    7   14 1
    15    7    8 1
    16    7   43 1
    17    8    9 1
    18    8   10 1
    19    8   17 1
    20   10   11 1
    21   10   12 1
    22   10   16 1
    23   12   13 2
    24   12   44 1
    25   13   14 1
    26   13   45 1
    27   14   15 2
    28   15   46 1
    29   16   47 1
    30   16   48 1
    31   16   49 1
    32   17   18 1
    33   17   50 1
    34   17   51 1
    35   18   19 1
    36   18   52 1
    37   18   53 1
    38   19   26 1
    39   19   20 1
    40   19   54 1
    41   20   21 1
    42   20   55 1
    43   20   56 1
    44   21   22 1
    45   21   23 1
    46   21   27 1
    47   23   24 1
    48   23   57 1
    49   23   58 1
    50   24   25 2
    51   24   26 1
    52   27   59 1
    53   28   29 1
    54   29   30 2
    55   29   31 1
    56   31   36 ar
    57   31   32 ar
    58   32   33 ar
    59   32   60 1
    60   33   34 ar
    61   33   61 1
    62   34   35 ar
    63   34   37 1
    64   35   36 ar
    65   35   62 1
    66   36   63 1
@<TRIPOS>MOLECULE
CHEMBL353734
   66    69     0     0     0
SMALL
USER_CHARGES

@<TRIPOS>ATOM
      1 C1          1.0621    0.6417   -0.5787 C.3       1 <0>        -0.1420
      2 C2          0.8537   -0.8366   -0.2438 C.3       1 <0>        -0.0595
      3 H1          1.4620   -1.4541   -0.9047 H         1 <0>         0.0840
      4 C3         -0.6278   -1.2030   -0.4072 C.3       1 <0>        -0.1278
      5 C4         -0.7937   -2.6879   -0.0906 C.3       1 <0>         0.0914
      6 H2         -0.2076   -3.2699   -0.8019 H         1 <0>         0.0842
      7 C5         -0.3375   -3.0203    1.3105 C.3       1 <0>        -0.0440
      8 C6         -1.5121   -3.1160    2.2869 C.3       1 <0>        -0.0610
      9 H3         -1.9346   -2.1244    2.4488 H         1 <0>         0.0742
     10 C7         -1.0022   -3.6794    3.6144 C.3       1 <0>        -0.0603
     11 H4         -1.7896   -3.5932    4.3631 H         1 <0>         0.0819
     12 C8          0.2127   -2.9465    4.0959 C.2       1 <0>        -0.1385
     13 C9          0.9912   -2.2123    3.3201 C.2       1 <0>        -0.1242
     14 C10         0.6689   -2.0661    1.8817 C.2       1 <0>        -0.0861
     15 C11         1.2363   -1.0939    1.1907 C.2       1 <0>        -0.1380
     16 C12        -0.6509   -5.1567    3.4276 C.3       1 <0>        -0.1564
     17 C13        -2.5844   -4.0428    1.7105 C.3       1 <0>        -0.1169
     18 C14        -3.5002   -4.5257    2.8370 C.3       1 <0>        -0.1336
     19 C15        -4.5725   -5.4524    2.2606 C.3       1 <0>         0.1099
     20 C16        -5.5598   -5.8405    3.3645 C.3       1 <0>        -0.1541
     21 C17        -6.6079   -6.8011    2.7937 C.3       1 <0>         0.1042
     22 H5         -7.3053   -7.0898    3.5800 H         1 <0>         0.0784
     23 C18        -5.8960   -8.0485    2.2548 C.3       1 <0>        -0.2059
     24 C19        -4.7960   -7.5998    1.3177 C.2       1 <0>         0.4953
     25 O1         -4.6752   -8.0915    0.2207 O.2       1 <0>        -0.4527
     26 O2         -3.9538   -6.6353    1.7425 O.3       1 <0>        -0.3662
     27 O3         -7.3200   -6.1583    1.7345 O.3       1 <0>        -0.5631
     28 O4         -2.1718   -3.0410   -0.2253 O.3       1 <0>        -0.3209
     29 C20        -2.5788   -3.4573   -1.4347 C.2       1 <0>         0.4487
     30 O5         -1.7911   -3.5200   -2.3487 O.2       1 <0>        -0.4931
     31 C21        -4.0183   -3.8467   -1.6526 C.3       1 <0>        -0.0754
     32 C22        -4.2120   -4.2734   -3.0848 C.ar      1 <0>        -0.0797
     33 C23        -4.5551   -3.3391   -4.0441 C.ar      1 <0>        -0.1032
     34 C24        -4.7328   -3.7305   -5.3579 C.ar      1 <0>        -0.1205
     35 C25        -4.5670   -5.0563   -5.7125 C.ar      1 <0>        -0.1150
     36 C26        -4.2230   -5.9905   -4.7535 C.ar      1 <0>        -0.1186
     37 C27        -4.0411   -5.5983   -3.4404 C.ar      1 <0>        -0.0985
     38 H6          2.1129    0.8995   -0.4469 H         1 <0>         0.0592
     39 H7          0.7701    0.8246   -1.6128 H         1 <0>         0.0582
     40 H8          0.4517    1.2541    0.0849 H         1 <0>         0.0574
     41 H9         -1.2306   -0.6111    0.2816 H         1 <0>         0.0759
     42 H10        -0.9433   -1.0087   -1.4323 H         1 <0>         0.0719
     43 H11         0.1250   -4.0069    1.2814 H         1 <0>         0.0840
     44 H12         0.4680   -3.0225    5.1425 H         1 <0>         0.1064
     45 H13         1.8593   -1.7204    3.7336 H         1 <0>         0.1181
     46 H14         1.9849   -0.4734    1.6608 H         1 <0>         0.1158
     47 H15         0.1234   -5.2526    2.6665 H         1 <0>         0.0553
     48 H16        -0.2865   -5.5654    4.3701 H         1 <0>         0.0534
     49 H17        -1.5392   -5.7045    3.1133 H         1 <0>         0.0765
     50 H18        -3.1733   -3.5009    0.9705 H         1 <0>         0.1070
     51 H19        -2.1069   -4.9008    1.2374 H         1 <0>         0.0674
     52 H20        -2.9113   -5.0675    3.5770 H         1 <0>         0.0877
     53 H21        -3.9777   -3.6676    3.3101 H         1 <0>         0.0855
     54 H22        -5.1046   -4.9393    1.4596 H         1 <0>         0.0839
     55 H23        -5.0228   -6.3293    4.1774 H         1 <0>         0.0950
     56 H24        -6.0542   -4.9451    3.7415 H         1 <0>         0.0978
     57 H25        -5.4661   -8.6126    3.0826 H         1 <0>         0.1174
     58 H26        -6.6074   -8.6728    1.7142 H         1 <0>         0.1069
     59 H27        -8.0008   -6.7106    1.3265 H         1 <0>         0.3861
     60 H28        -4.2757   -4.6725   -0.9894 H         1 <0>         0.1123
     61 H29        -4.6619   -2.9937   -1.4374 H         1 <0>         0.1134
     62 H30        -4.6847   -2.3033   -3.7670 H         1 <0>         0.1199
     63 H31        -5.0016   -3.0006   -6.1072 H         1 <0>         0.1229
     64 H32        -4.7065   -5.3622   -6.7388 H         1 <0>         0.1223
     65 H33        -4.0937   -7.0263   -5.0305 H         1 <0>         0.1232
     66 H34        -3.7687   -6.3275   -2.6918 H         1 <0>         0.1226
@<TRIPOS>BOND
     1    1    2 1
     2    1   38 1
     3    1   39 1
     4    1   40 1
     5    2    3 1
     6    2   15 1
     7    2    4 1
     8    4    5 1
     9    4   41 1
    10    4   42 1
    11    5    6 1
    12    5    7 1
    13    5   28 1
    14    7   14 1
    15    7    8 1
    16    7   43 1
    17    8    9 1
    18    8   10 1
    19    8   17 1
    20   10   11 1
    21   10   12 1
    22   10   16 1
    23   12   13 2
    24   12   44 1
    25   13   14 1
    26   13   45 1
    27   14   15 2
    28   15   46 1
    29   16   47 1
    30   16   48 1
    31   16   49 1
    32   17   18 1
    33   17   50 1
    34   17   51 1
    35   18   19 1
    36   18   52 1
    37   18   53 1
    38   19   26 1
    39   19   20 1
    40   19   54 1
    41   20   21 1
    42   20   55 1
    43   20   56 1
    44   21   22 1
    45   21   23 1
    46   21   27 1
    47   23   24 1
    48   23   57 1
    49   23   58 1
    50   24   25 2
    51   24   26 1
    52   27   59 1
    53   28   29 1
    54   29   30 2
    55   29   31 1
    56   31   32 1
    57   31   60 1
    58   31   61 1
    59   32   37 ar
    60   32   33 ar
    61   33   34 ar
    62   33   62 1
    63   34   35 ar
    64   34   63 1
    65   35   36 ar
    66   35   64 1
    67   36   37 ar
    68   36   65 1
    69   37   66 1
@<TRIPOS>MOLECULE
CHEMBL353734__1
   66    69     0     0     0
SMALL
USER_CHARGES

@<TRIPOS>ATOM
      1 C1          1.0653    0.6387   -0.5798 C.3       1 <0>        -0.1423
      2 C2          0.8562   -0.8393   -0.2440 C.3       1 <0>        -0.0595
      3 H1          1.4646   -1.4576   -0.9041 H         1 <0>         0.0841
      4 C3         -0.6254   -1.2053   -0.4080 C.3       1 <0>        -0.1283
      5 C4         -0.7921   -2.6899   -0.0904 C.3       1 <0>         0.0900
      6 H2         -0.2058   -3.2726   -0.8009 H         1 <0>         0.0840
      7 C5         -0.3369   -3.0215    1.3111 C.3       1 <0>        -0.0430
      8 C6         -1.5121   -3.1160    2.2869 C.3       1 <0>        -0.0615
      9 H3         -1.9343   -2.1241    2.4478 H         1 <0>         0.0759
     10 C7         -1.0033   -3.6786    3.6151 C.3       1 <0>        -0.0619
     11 H4         -1.7911   -3.5916    4.3633 H         1 <0>         0.0832
     12 C8          0.2116   -2.9458    4.0968 C.2       1 <0>        -0.1397
     13 C9          0.9909   -2.2125    3.3210 C.2       1 <0>        -0.1226
     14 C10         0.6696   -2.0672    1.8823 C.2       1 <0>        -0.0878
     15 C11         1.2378   -1.0958    1.1910 C.2       1 <0>        -0.1362
     16 C12        -0.6524   -5.1562    3.4296 C.3       1 <0>        -0.1551
     17 C13        -2.5844   -4.0428    1.7105 C.3       1 <0>        -0.1179
     18 C14        -3.5002   -4.5257    2.8370 C.3       1 <0>        -0.1309
     19 C15        -4.5725   -5.4524    2.2606 C.3       1 <0>         0.1096
     20 C16        -5.4150   -6.0305    3.4008 C.3       1 <0>        -0.1558
     21 C17        -6.5134   -6.9251    2.8173 C.3       1 <0>         0.1084
     22 H5         -6.0595   -7.7425    2.2572 H         1 <0>         0.0662
     23 C18        -7.3914   -6.0855    1.8806 C.3       1 <0>        -0.2059
     24 C19        -6.4899   -5.3763    0.8938 C.2       1 <0>         0.4887
     25 O1         -6.7218   -5.4050   -0.2917 O.2       1 <0>        -0.4434
     26 O2         -5.4197   -4.7111    1.3756 O.3       1 <0>        -0.3622
     27 O3         -7.3115   -7.4562    3.8771 O.3       1 <0>        -0.5560
     28 O4         -2.1703   -3.0425   -0.2258 O.3       1 <0>        -0.3197
     29 C20        -2.5767   -3.4596   -1.4351 C.2       1 <0>         0.4479
     30 O5         -1.7884   -3.5232   -2.3486 O.2       1 <0>        -0.4958
     31 C21        -4.0161   -3.8485   -1.6536 C.3       1 <0>        -0.0707
     32 C22        -4.2091   -4.2762   -3.0857 C.ar      1 <0>        -0.0709
     33 C23        -4.5513   -3.3424   -4.0458 C.ar      1 <0>        -0.1037
     34 C24        -4.7283   -3.7348   -5.3594 C.ar      1 <0>        -0.1189
     35 C25        -4.5628   -5.0608   -5.7130 C.ar      1 <0>        -0.1170
     36 C26        -4.2197   -5.9945   -4.7531 C.ar      1 <0>        -0.1193
     37 C27        -4.0385   -5.6014   -3.4402 C.ar      1 <0>        -0.0999
     38 H6          2.1162    0.8961   -0.4475 H         1 <0>         0.0593
     39 H7          0.7740    0.8209   -1.6142 H         1 <0>         0.0584
     40 H8          0.4548    1.2518    0.0830 H         1 <0>         0.0576
     41 H9         -1.2284   -0.6127    0.2799 H         1 <0>         0.0761
     42 H10        -0.9402   -1.0116   -1.4334 H         1 <0>         0.0722
     43 H11         0.1252   -4.0083    1.2831 H         1 <0>         0.0832
     44 H12         0.4663   -3.0213    5.1437 H         1 <0>         0.1069
     45 H13         1.8589   -1.7207    3.7347 H         1 <0>         0.1184
     46 H14         1.9863   -0.4752    1.6611 H         1 <0>         0.1159
     47 H15         0.1224   -5.2530    2.6690 H         1 <0>         0.0570
     48 H16        -0.2888   -5.5644    4.3726 H         1 <0>         0.0561
     49 H17        -1.5408   -5.7039    3.1151 H         1 <0>         0.0693
     50 H18        -3.1733   -3.5009    0.9705 H         1 <0>         0.1176
     51 H19        -2.1069   -4.9008    1.2374 H         1 <0>         0.0577
     52 H20        -2.9113   -5.0675    3.5770 H         1 <0>         0.0980
     53 H21        -3.9777   -3.6676    3.3101 H         1 <0>         0.0797
     54 H22        -4.0951   -6.2645    1.7122 H         1 <0>         0.0774
     55 H23        -4.7784   -6.6198    4.0608 H         1 <0>         0.0975
     56 H24        -5.8703   -5.2168    3.9652 H         1 <0>         0.0915
     57 H25        -8.0833   -6.7354    1.3448 H         1 <0>         0.1061
     58 H26        -7.9505   -5.3514    2.4608 H         1 <0>         0.1171
     59 H27        -8.0279   -8.0331    3.5788 H         1 <0>         0.3853
     60 H28        -4.2742   -4.6738   -0.9900 H         1 <0>         0.1152
     61 H29        -4.6596   -2.9952   -1.4394 H         1 <0>         0.1124
     62 H30        -4.6807   -2.3064   -3.7695 H         1 <0>         0.1194
     63 H31        -4.9964   -3.0053   -6.1094 H         1 <0>         0.1226
     64 H32        -4.7018   -5.3675   -6.7392 H         1 <0>         0.1218
     65 H33        -4.0907   -7.0306   -5.0293 H         1 <0>         0.1219
     66 H34        -3.7668   -6.3302   -2.6909 H         1 <0>         0.1168
@<TRIPOS>BOND
     1    1    2 1
     2    1   38 1
     3    1   39 1
     4    1   40 1
     5    2    3 1
     6    2   15 1
     7    2    4 1
     8    4    5 1
     9    4   41 1
    10    4   42 1
    11    5    6 1
    12    5    7 1
    13    5   28 1
    14    7   14 1
    15    7    8 1
    16    7   43 1
    17    8    9 1
    18    8   10 1
    19    8   17 1
    20   10   11 1
    21   10   12 1
    22   10   16 1
    23   12   13 2
    24   12   44 1
    25   13   14 1
    26   13   45 1
    27   14   15 2
    28   15   46 1
    29   16   47 1
    30   16   48 1
    31   16   49 1
    32   17   18 1
    33   17   50 1
    34   17   51 1
    35   18   19 1
    36   18   52 1
    37   18   53 1
    38   19   26 1
    39   19   20 1
    40   19   54 1
    41   20   21 1
    42   20   55 1
    43   20   56 1
    44   21   22 1
    45   21   23 1
    46   21   27 1
    47   23   24 1
    48   23   57 1
    49   23   58 1
    50   24   25 2
    51   24   26 1
    52   27   59 1
    53   28   29 1
    54   29   30 2
    55   29   31 1
    56   31   32 1
    57   31   60 1
    58   31   61 1
    59   32   37 ar
    60   32   33 ar
    61   33   34 ar
    62   33   62 1
    63   34   35 ar
    64   34   63 1
    65   35   36 ar
    66   35   64 1
    67   36   37 ar
    68   36   65 1
    69   37   66 1
@<TRIPOS>MOLECULE
CHEMBL353734__2
   66    69     0     0     0
SMALL
USER_CHARGES

@<TRIPOS>ATOM
      1 C1         -0.4065    1.5718   -0.0789 C.3       1 <0>        -0.1332
      2 C2         -0.3147    0.0446   -0.0859 C.3       1 <0>        -0.0566
      3 H1          0.0671   -0.2979   -1.0478 H         1 <0>         0.0777
      4 C3         -1.7020   -0.5610    0.1685 C.3       1 <0>        -0.1361
      5 C4         -2.2161   -0.0391    1.5086 C.3       1 <0>         0.1022
      6 H2         -3.1980   -0.4702    1.7040 H         1 <0>         0.0865
      7 C5         -1.2880   -0.3946    2.6460 C.3       1 <0>        -0.0442
      8 C6         -1.7750   -1.6222    3.4193 C.3       1 <0>        -0.0730
      9 H3         -2.8203   -1.4880    3.6976 H         1 <0>         0.0800
     10 C7         -0.9241   -1.7771    4.6808 C.3       1 <0>        -0.0575
     11 H4         -1.1731   -0.9772    5.3782 H         1 <0>         0.0830
     12 C8          0.5405   -1.7170    4.3707 C.2       1 <0>        -0.1388
     13 C9          1.0433   -1.1933    3.2661 C.2       1 <0>        -0.1270
     14 C10         0.1356   -0.6333    2.2382 C.2       1 <0>        -0.0685
     15 C11         0.5991   -0.4171    1.0197 C.2       1 <0>        -0.1463
     16 C12        -1.2398   -3.1243    5.3336 C.3       1 <0>        -0.1504
     17 C13        -1.6331   -2.8694    2.5444 C.3       1 <0>        -0.1169
     18 C14        -0.1499   -3.1959    2.3586 C.3       1 <0>        -0.1565
     19 C15        -0.0097   -4.5190    1.6032 C.3       1 <0>         0.1071
     20 C16         1.4691   -4.9067    1.5216 C.3       1 <0>        -0.1507
     21 C17         1.6092   -6.2103    0.7289 C.3       1 <0>         0.1039
     22 H5          2.6622   -6.4829    0.6576 H         1 <0>         0.0779
     23 C18         1.0367   -5.9989   -0.6785 C.3       1 <0>        -0.2051
     24 C19        -0.3573   -5.4265   -0.5430 C.2       1 <0>         0.4946
     25 O1         -1.2859   -5.9008   -1.1534 O.2       1 <0>        -0.4554
     26 O2         -0.5335   -4.3711    0.2787 O.3       1 <0>        -0.3652
     27 O3          0.8886   -7.2523    1.3899 O.3       1 <0>        -0.5635
     28 O4         -2.3388    1.3829    1.4377 O.3       1 <0>        -0.3392
     29 C20        -3.5169    1.8729    1.0209 C.2       1 <0>         0.4560
     30 O5         -4.4143    1.1195    0.7259 O.2       1 <0>        -0.4946
     31 C21        -3.7203    3.3627    0.9207 C.3       1 <0>        -0.0742
     32 C22        -5.1173    3.6473    0.4324 C.ar      1 <0>        -0.0804
     33 C23        -5.3682    3.7495   -0.9232 C.ar      1 <0>        -0.1024
     34 C24        -6.6497    4.0105   -1.3711 C.ar      1 <0>        -0.1186
     35 C25        -7.6803    4.1689   -0.4636 C.ar      1 <0>        -0.1148
     36 C26        -7.4295    4.0657    0.8919 C.ar      1 <0>        -0.1189
     37 C27        -6.1489    3.8005    1.3397 C.ar      1 <0>        -0.1029
     38 H6          0.4443    1.9894   -0.6173 H         1 <0>         0.0476
     39 H7         -1.3317    1.8825   -0.5642 H         1 <0>         0.0490
     40 H8         -0.3974    1.9316    0.9500 H         1 <0>         0.0715
     41 H9         -2.3842   -0.2632   -0.6278 H         1 <0>         0.0704
     42 H10        -1.6277   -1.6479    0.2018 H         1 <0>         0.0928
     43 H11        -1.2930    0.4387    3.3486 H         1 <0>         0.0901
     44 H12         1.2286   -2.1277    5.0948 H         1 <0>         0.1115
     45 H13         2.1122   -1.1737    3.1136 H         1 <0>         0.1216
     46 H14         1.6473   -0.5740    0.8124 H         1 <0>         0.1131
     47 H15        -0.9266   -3.9313    4.6712 H         1 <0>         0.0628
     48 H16        -0.7055   -3.2034    6.2804 H         1 <0>         0.0572
     49 H17        -2.3122   -3.1981    5.5144 H         1 <0>         0.0591
     50 H18        -2.1326   -3.7099    3.0262 H         1 <0>         0.0655
     51 H19        -2.0891   -2.6847    1.5718 H         1 <0>         0.0735
     52 H20         0.3288   -2.3996    1.7887 H         1 <0>         0.1135
     53 H21         0.3281   -3.2822    3.3344 H         1 <0>         0.1056
     54 H22        -0.5624   -5.2981    2.1282 H         1 <0>         0.0780
     55 H23         2.0256   -4.1147    1.0204 H         1 <0>         0.0941
     56 H24         1.8639   -5.0486    2.5276 H         1 <0>         0.0953
     57 H25         1.6677   -5.3027   -1.2311 H         1 <0>         0.1172
     58 H26         0.9928   -6.9526   -1.2044 H         1 <0>         0.1062
     59 H27         0.9344   -8.1078    0.9415 H         1 <0>         0.3856
     60 H28        -3.5792    3.8155    1.9022 H         1 <0>         0.1143
     61 H29        -2.9981    3.7818    0.2201 H         1 <0>         0.1143
     62 H30        -4.5630    3.6258   -1.6322 H         1 <0>         0.1207
     63 H31        -6.8456    4.0911   -2.4301 H         1 <0>         0.1237
     64 H32        -8.6813    4.3735   -0.8135 H         1 <0>         0.1230
     65 H33        -8.2347    4.1898    1.6010 H         1 <0>         0.1237
     66 H34        -5.9537    3.7162    2.3986 H         1 <0>         0.1207
@<TRIPOS>BOND
     1    1    2 1
     2    1   38 1
     3    1   39 1
     4    1   40 1
     5    2    3 1
     6    2   15 1
     7    2    4 1
     8    4    5 1
     9    4   41 1
    10    4   42 1
    11    5    6 1
    12    5    7 1
    13    5   28 1
    14    7   14 1
    15    7    8 1
    16    7   43 1
    17    8    9 1
    18    8   10 1
    19    8   17 1
    20   10   11 1
    21   10   12 1
    22   10   16 1
    23   12   13 2
    24   12   44 1
    25   13   14 1
    26   13   45 1
    27   14   15 2
    28   15   46 1
    29   16   47 1
    30   16   48 1
    31   16   49 1
    32   17   18 1
    33   17   50 1
    34   17   51 1
    35   18   19 1
    36   18   52 1
    37   18   53 1
    38   19   26 1
    39   19   20 1
    40   19   54 1
    41   20   21 1
    42   20   55 1
    43   20   56 1
    44   21   22 1
    45   21   23 1
    46   21   27 1
    47   23   24 1
    48   23   57 1
    49   23   58 1
    50   24   25 2
    51   24   26 1
    52   27   59 1
    53   28   29 1
    54   29   30 2
    55   29   31 1
    56   31   32 1
    57   31   60 1
    58   31   61 1
    59   32   37 ar
    60   32   33 ar
    61   33   34 ar
    62   33   62 1
    63   34   35 ar
    64   34   63 1
    65   35   36 ar
    66   35   64 1
    67   36   37 ar
    68   36   65 1
    69   37   66 1
@<TRIPOS>MOLECULE
CHEMBL353734__3
   66    69     0     0     0
SMALL
USER_CHARGES

@<TRIPOS>ATOM
      1 C1         -0.4082    1.5709   -0.0808 C.3       1 <0>        -0.1337
      2 C2         -0.3161    0.0437   -0.0873 C.3       1 <0>        -0.0576
      3 H1          0.0655   -0.2991   -1.0490 H         1 <0>         0.0790
      4 C3         -1.7032   -0.5621    0.1677 C.3       1 <0>        -0.1352
      5 C4         -2.2172   -0.0398    1.5077 C.3       1 <0>         0.1016
      6 H2         -3.1989   -0.4710    1.7035 H         1 <0>         0.0876
      7 C5         -1.2887   -0.3946    2.6451 C.3       1 <0>        -0.0468
      8 C6         -1.7752   -1.6220    3.4190 C.3       1 <0>        -0.0715
      9 H3         -2.8205   -1.4879    3.6975 H         1 <0>         0.0808
     10 C7         -0.9240   -1.7761    4.6804 C.3       1 <0>        -0.0575
     11 H4         -1.1729   -0.9760    5.3774 H         1 <0>         0.0828
     12 C8          0.5406   -1.7158    4.3699 C.2       1 <0>        -0.1301
     13 C9          1.0429   -1.1924    3.2650 C.2       1 <0>        -0.1352
     14 C10         0.1349   -0.6331    2.2370 C.2       1 <0>        -0.0653
     15 C11         0.5981   -0.4173    1.0183 C.2       1 <0>        -0.1536
     16 C12        -1.2392   -3.1231    5.3339 C.3       1 <0>        -0.1527
     17 C13        -1.6332   -2.8695    2.5447 C.3       1 <0>        -0.1187
     18 C14        -0.1500   -3.1957    2.3587 C.3       1 <0>        -0.1538
     19 C15        -0.0097   -4.5188    1.6033 C.3       1 <0>         0.1055
     20 C16         1.4692   -4.7866    1.3116 C.3       1 <0>        -0.1518
     21 C17         1.6095   -6.1318    0.5920 C.3       1 <0>         0.1083
     22 H5          1.0585   -6.1021   -0.3480 H         1 <0>         0.0659
     23 C18         1.0363   -7.2362    1.4890 C.3       1 <0>        -0.2047
     24 C19        -0.3579   -6.8283    1.9123 C.2       1 <0>         0.4905
     25 O1         -1.2867   -7.5947    1.8133 O.2       1 <0>        -0.4505
     26 O2         -0.5341   -5.5842    2.4036 O.3       1 <0>        -0.3638
     27 O3          2.9897   -6.3928    0.3298 O.3       1 <0>        -0.5557
     28 O4         -2.3402    1.3822    1.4363 O.3       1 <0>        -0.3384
     29 C20        -3.5185    1.8717    1.0195 C.2       1 <0>         0.4566
     30 O5         -4.4157    1.1179    0.7251 O.2       1 <0>        -0.4950
     31 C21        -3.7223    3.3615    0.9188 C.3       1 <0>        -0.0744
     32 C22        -5.1194    3.6455    0.4306 C.ar      1 <0>        -0.0807
     33 C23        -5.3707    3.7471   -0.9249 C.ar      1 <0>        -0.1025
     34 C24        -6.6523    4.0076   -1.3727 C.ar      1 <0>        -0.1187
     35 C25        -7.6827    4.1661   -0.4649 C.ar      1 <0>        -0.1146
     36 C26        -7.4316    4.0636    0.8906 C.ar      1 <0>        -0.1187
     37 C27        -6.1508    3.7988    1.3382 C.ar      1 <0>        -0.1028
     38 H6          0.4424    1.9885   -0.6195 H         1 <0>         0.0488
     39 H7         -1.3335    1.8811   -0.5663 H         1 <0>         0.0493
     40 H8         -0.3992    1.9311    0.9479 H         1 <0>         0.0721
     41 H9         -2.3857   -0.2649   -0.6285 H         1 <0>         0.0726
     42 H10        -1.6287   -1.6490    0.2014 H         1 <0>         0.0850
     43 H11        -1.2937    0.4390    3.3473 H         1 <0>         0.0917
     44 H12         1.2289   -2.1260    5.0940 H         1 <0>         0.1116
     45 H13         2.1119   -1.1727    3.1122 H         1 <0>         0.1226
     46 H14         1.6463   -0.5740    0.8109 H         1 <0>         0.1155
     47 H15        -0.9259   -3.9303    4.6718 H         1 <0>         0.0702
     48 H16        -0.7047   -3.2016    6.2806 H         1 <0>         0.0556
     49 H17        -2.3115   -3.1971    5.5149 H         1 <0>         0.0581
     50 H18        -2.1324   -3.7099    3.0269 H         1 <0>         0.0767
     51 H19        -2.0894   -2.6853    1.5720 H         1 <0>         0.0648
     52 H20         0.3285   -2.3994    1.7887 H         1 <0>         0.1219
     53 H21         0.3282   -3.2820    3.3344 H         1 <0>         0.1005
     54 H22        -0.5618   -4.4626    0.6652 H         1 <0>         0.0728
     55 H23         1.8646   -3.9924    0.6783 H         1 <0>         0.0967
     56 H24         2.0252   -4.8157    2.2487 H         1 <0>         0.0898
     57 H25         0.9924   -8.1739    0.9349 H         1 <0>         0.1059
     58 H26         1.6667   -7.3584    2.3698 H         1 <0>         0.1170
     59 H27         3.1521   -7.2305   -0.1251 H         1 <0>         0.3849
     60 H28        -3.5810    3.8147    1.9000 H         1 <0>         0.1147
     61 H29        -3.0003    3.7804    0.2178 H         1 <0>         0.1146
     62 H30        -4.5657    3.6232   -1.6341 H         1 <0>         0.1206
     63 H31        -6.8485    4.0876   -2.4317 H         1 <0>         0.1238
     64 H32        -8.6839    4.3703   -0.8147 H         1 <0>         0.1231
     65 H33        -8.2366    4.1877    1.5998 H         1 <0>         0.1239
     66 H34        -5.9553    3.7150    2.3970 H         1 <0>         0.1208
@<TRIPOS>BOND
     1    1    2 1
     2    1   38 1
     3    1   39 1
     4    1   40 1
     5    2    3 1
     6    2   15 1
     7    2    4 1
     8    4    5 1
     9    4   41 1
    10    4   42 1
    11    5    6 1
    12    5    7 1
    13    5   28 1
    14    7   14 1
    15    7    8 1
    16    7   43 1
    17    8    9 1
    18    8   10 1
    19    8   17 1
    20   10   11 1
    21   10   12 1
    22   10   16 1
    23   12   13 2
    24   12   44 1
    25   13   14 1
    26   13   45 1
    27   14   15 2
    28   15   46 1
    29   16   47 1
    30   16   48 1
    31   16   49 1
    32   17   18 1
    33   17   50 1
    34   17   51 1
    35   18   19 1
    36   18   52 1
    37   18   53 1
    38   19   26 1
    39   19   20 1
    40   19   54 1
    41   20   21 1
    42   20   55 1
    43   20   56 1
    44   21   22 1
    45   21   23 1
    46   21   27 1
    47   23   24 1
    48   23   57 1
    49   23   58 1
    50   24   25 2
    51   24   26 1
    52   27   59 1
    53   28   29 1
    54   29   30 2
    55   29   31 1
    56   31   32 1
    57   31   60 1
    58   31   61 1
    59   32   37 ar
    60   32   33 ar
    61   33   34 ar
    62   33   62 1
    63   34   35 ar
    64   34   63 1
    65   35   36 ar
    66   35   64 1
    67   36   37 ar
    68   36   65 1
    69   37   66 1
@<TRIPOS>MOLECULE
CHEMBL300495
   45    47     0     0     0
SMALL
USER_CHARGES

@<TRIPOS>ATOM
      1 C1          5.5867    2.8300   -1.5323 C.ar      1 <0>        -0.1202
      2 C2          6.2035    1.6040   -1.6983 C.ar      1 <0>        -0.1173
      3 C3          5.6014    0.4566   -1.2170 C.ar      1 <0>        -0.1131
      4 C4          4.3828    0.5351   -0.5693 C.ar      1 <0>        -0.0860
      5 C5          3.7664    1.7611   -0.4024 C.ar      1 <0>        -0.1145
      6 C6          4.3678    2.9084   -0.8850 C.ar      1 <0>        -0.1169
      7 C7          3.7259   -0.7160   -0.0455 C.3       1 <0>        -0.0416
      8 C8          4.2651   -1.0298    1.3263 C.ar      1 <0>        -0.0483
      9 C9          5.1264   -0.1458    1.9490 C.ar      1 <0>        -0.0979
     10 C10         5.6217   -0.4334    3.2083 C.ar      1 <0>        -0.0243
     11 C11         5.2549   -1.6059    3.8445 C.ar      1 <0>        -0.1052
     12 C12         4.3931   -2.4899    3.2210 C.ar      1 <0>        -0.0208
     13 C13         3.8938   -2.1985    1.9637 C.ar      1 <0>        -0.0675
     14 C14         2.9500   -3.1587    1.2868 C.3       1 <0>        -0.0888
     15 C15         3.7550   -4.2335    0.5535 C.3       1 <0>        -0.1085
     16 C16         2.7967   -5.2083   -0.1338 C.3       1 <0>         0.1107
     17 C17         3.5963   -6.3503   -0.7667 C.3       1 <0>        -0.1537
     18 C18         2.6374   -7.3020   -1.4891 C.3       1 <0>         0.1042
     19 H1          3.2044   -8.1097   -1.9520 H         1 <0>         0.0800
     20 C19         1.8823   -6.5188   -2.5706 C.3       1 <0>        -0.2049
     21 C20         1.2742   -5.2904   -1.9298 C.2       1 <0>         0.4965
     22 O1          0.1131   -5.0071   -2.1072 O.2       1 <0>        -0.4519
     23 O2          2.0658   -4.5202   -1.1550 O.3       1 <0>        -0.3680
     24 O3          1.7068   -7.8467   -0.5514 O.3       1 <0>        -0.5635
     25 Cl1         3.9326   -3.9617    4.0183 Cl        1 <0>        -0.0526
     26 Cl2         6.7038    0.6766    3.9899 Cl        1 <0>        -0.0565
     27 H2          6.0592    3.7270   -1.9043 H         1 <0>         0.1219
     28 H3          7.1556    1.5427   -2.2044 H         1 <0>         0.1226
     29 H4          6.0830   -0.5013   -1.3474 H         1 <0>         0.1214
     30 H5          2.8141    1.8224    0.1033 H         1 <0>         0.1227
     31 H6          3.8861    3.8662   -0.7550 H         1 <0>         0.1229
     32 H7          2.6483   -0.5631    0.0139 H         1 <0>         0.0946
     33 H8          3.9384   -1.5469   -0.7182 H         1 <0>         0.0954
     34 H9          5.4130    0.7692    1.4521 H         1 <0>         0.1431
     35 H10         5.6415   -1.8309    4.8275 H         1 <0>         0.1438
     36 H11         2.3123   -3.6296    2.0350 H         1 <0>         0.0840
     37 H12         2.3315   -2.6167    0.5714 H         1 <0>         0.0910
     38 H13         4.3927   -3.7626   -0.1947 H         1 <0>         0.0798
     39 H14         4.3735   -4.7755    1.2688 H         1 <0>         0.0909
     40 H15         2.1013   -5.6139    0.6010 H         1 <0>         0.0880
     41 H16         4.3103   -5.9416   -1.4817 H         1 <0>         0.0965
     42 H17         4.1313   -6.8946    0.0115 H         1 <0>         0.0989
     43 H18         2.5743   -6.2184   -3.3574 H         1 <0>         0.1185
     44 H19         1.0936   -7.1418   -2.9923 H         1 <0>         0.1079
     45 H20         1.0684   -8.4594   -0.9415 H         1 <0>         0.3867
@<TRIPOS>BOND
     1    1    6 ar
     2    1    2 ar
     3    1   27 1
     4    2    3 ar
     5    2   28 1
     6    3    4 ar
     7    3   29 1
     8    4    5 ar
     9    4    7 1
    10    5    6 ar
    11    5   30 1
    12    6   31 1
    13    7    8 1
    14    7   32 1
    15    7   33 1
    16    8   13 ar
    17    8    9 ar
    18    9   10 ar
    19    9   34 1
    20   10   11 ar
    21   10   26 1
    22   11   12 ar
    23   11   35 1
    24   12   13 ar
    25   12   25 1
    26   13   14 1
    27   14   15 1
    28   14   36 1
    29   14   37 1
    30   15   16 1
    31   15   38 1
    32   15   39 1
    33   16   23 1
    34   16   17 1
    35   16   40 1
    36   17   18 1
    37   17   41 1
    38   17   42 1
    39   18   19 1
    40   18   20 1
    41   18   24 1
    42   20   21 1
    43   20   43 1
    44   20   44 1
    45   21   22 2
    46   21   23 1
    47   24   45 1
@<TRIPOS>MOLECULE
CHEMBL300495__1
   45    47     0     0     0
SMALL
USER_CHARGES

@<TRIPOS>ATOM
      1 C1          5.5868    2.8299   -1.5323 C.ar      1 <0>        -0.1194
      2 C2          6.2036    1.6040   -1.6983 C.ar      1 <0>        -0.1170
      3 C3          5.6015    0.4565   -1.2170 C.ar      1 <0>        -0.1129
      4 C4          4.3828    0.5350   -0.5693 C.ar      1 <0>        -0.0879
      5 C5          3.7665    1.7611   -0.4025 C.ar      1 <0>        -0.1144
      6 C6          4.3679    2.9084   -0.8850 C.ar      1 <0>        -0.1169
      7 C7          3.7259   -0.7160   -0.0455 C.3       1 <0>        -0.0406
      8 C8          4.2651   -1.0298    1.3263 C.ar      1 <0>        -0.0516
      9 C9          5.1264   -0.1458    1.9490 C.ar      1 <0>        -0.0980
     10 C10         5.6217   -0.4334    3.2083 C.ar      1 <0>        -0.0240
     11 C11         5.2548   -1.6059    3.8445 C.ar      1 <0>        -0.1051
     12 C12         4.3931   -2.4899    3.2210 C.ar      1 <0>        -0.0199
     13 C13         3.8938   -2.1985    1.9637 C.ar      1 <0>        -0.0682
     14 C14         2.9500   -3.1587    1.2868 C.3       1 <0>        -0.0894
     15 C15         3.7550   -4.2335    0.5535 C.3       1 <0>        -0.1084
     16 C16         2.7967   -5.2083   -0.1338 C.3       1 <0>         0.1105
     17 C17         3.5989   -6.2127   -0.9654 C.3       1 <0>        -0.1560
     18 C18         2.6391   -7.2123   -1.6187 C.3       1 <0>         0.1091
     19 H1          1.9457   -6.6804   -2.2702 H         1 <0>         0.0677
     20 C19         1.8554   -7.9391   -0.5184 C.3       1 <0>        -0.2052
     21 C20         1.2437   -6.8993    0.3948 C.2       1 <0>         0.4920
     22 O1          0.0762   -6.9510    0.7014 O.2       1 <0>        -0.4474
     23 O2          2.0395   -5.9126    0.8567 O.3       1 <0>        -0.3623
     24 O3          3.3843   -8.1607   -2.3851 O.3       1 <0>        -0.5555
     25 Cl1         3.9326   -3.9616    4.0183 Cl        1 <0>        -0.0472
     26 Cl2         6.7038    0.6766    3.9899 Cl        1 <0>        -0.0562
     27 H2          6.0594    3.7269   -1.9044 H         1 <0>         0.1222
     28 H3          7.1557    1.5426   -2.2044 H         1 <0>         0.1230
     29 H4          6.0830   -0.5014   -1.3474 H         1 <0>         0.1219
     30 H5          2.8142    1.8224    0.1032 H         1 <0>         0.1226
     31 H6          3.8862    3.8662   -0.7551 H         1 <0>         0.1231
     32 H7          2.6483   -0.5630    0.0139 H         1 <0>         0.0940
     33 H8          3.9384   -1.5469   -0.7182 H         1 <0>         0.0928
     34 H9          5.4130    0.7692    1.4521 H         1 <0>         0.1429
     35 H10         5.6415   -1.8309    4.8275 H         1 <0>         0.1439
     36 H11         2.3123   -3.6296    2.0350 H         1 <0>         0.0937
     37 H12         2.3315   -2.6167    0.5714 H         1 <0>         0.0826
     38 H13         4.3927   -3.7626   -0.1947 H         1 <0>         0.0914
     39 H14         4.3735   -4.7755    1.2688 H         1 <0>         0.0849
     40 H15         2.1194   -4.6550   -0.7843 H         1 <0>         0.0821
     41 H16         4.1542   -5.6828   -1.7393 H         1 <0>         0.0993
     42 H17         4.2951   -6.7466   -0.3186 H         1 <0>         0.0922
     43 H18         1.0671   -8.5437   -0.9669 H         1 <0>         0.1073
     44 H19         2.5296   -8.5781    0.0520 H         1 <0>         0.1179
     45 H20         2.8382   -8.8250   -2.8274 H         1 <0>         0.3859
@<TRIPOS>BOND
     1    1    6 ar
     2    1    2 ar
     3    1   27 1
     4    2    3 ar
     5    2   28 1
     6    3    4 ar
     7    3   29 1
     8    4    5 ar
     9    4    7 1
    10    5    6 ar
    11    5   30 1
    12    6   31 1
    13    7    8 1
    14    7   32 1
    15    7   33 1
    16    8   13 ar
    17    8    9 ar
    18    9   10 ar
    19    9   34 1
    20   10   11 ar
    21   10   26 1
    22   11   12 ar
    23   11   35 1
    24   12   13 ar
    25   12   25 1
    26   13   14 1
    27   14   15 1
    28   14   36 1
    29   14   37 1
    30   15   16 1
    31   15   38 1
    32   15   39 1
    33   16   23 1
    34   16   17 1
    35   16   40 1
    36   17   18 1
    37   17   41 1
    38   17   42 1
    39   18   19 1
    40   18   20 1
    41   18   24 1
    42   20   21 1
    43   20   43 1
    44   20   44 1
    45   21   22 2
    46   21   23 1
    47   24   45 1
@<TRIPOS>MOLECULE
CHEMBL471744
   71    73     0     0     0
SMALL
USER_CHARGES

@<TRIPOS>ATOM
      1 C1          0.0817    1.8230   -0.5040 C.3       1 <0>        -0.1484
      2 C2          0.0720    0.3079   -0.2906 C.3       1 <0>        -0.0619
      3 C3          0.7495   -0.3676   -1.4549 C.2       1 <0>         0.0891
      4 C4          0.1333   -0.7929   -2.6122 C.2       1 <0>        -0.2205
      5 C5          1.1404   -1.3687   -3.4296 C.2       1 <0>        -0.0860
      6 C6          2.3102   -1.2722   -2.7477 C.2       1 <0>         0.0435
      7 N1          2.0638   -0.6548   -1.5462 N.pl3     1 <0>        -0.4131
      8 C7          3.0695   -0.3586   -0.5230 C.3       1 <0>         0.0935
      9 C8          3.1811   -1.5421    0.4402 C.3       1 <0>        -0.1653
     10 C9          4.2315   -1.2327    1.5088 C.3       1 <0>         0.1173
     11 H1          5.1745   -0.9738    1.0272 H         1 <0>         0.0997
     12 C10         4.4331   -2.4621    2.3969 C.3       1 <0>        -0.1854
     13 C11         5.5702   -2.1963    3.3854 C.3       1 <0>         0.1380
     14 H2          6.4664   -1.9038    2.8382 H         1 <0>         0.0930
     15 C12         5.8551   -3.4670    4.1887 C.3       1 <0>        -0.2194
     16 C13         7.0537   -3.2432    5.0743 C.2       1 <0>         0.4904
     17 O1          7.6269   -2.1672    5.0640 O.co2     1 <0>        -0.6809
     18 O2          7.4502   -4.1382    5.8012 O.co2     1 <0>        -0.7122
     19 O3          5.1913   -1.1448    4.2758 O.3       1 <0>        -0.5277
     20 O4          3.7881   -0.1348    2.3087 O.3       1 <0>        -0.5409
     21 C14         3.6288   -1.7463   -3.2216 C.ar      1 <0>        -0.0233
     22 C15         3.7481   -3.0016   -3.8192 C.ar      1 <0>        -0.0730
     23 C16         4.9800   -3.4389   -4.2594 C.ar      1 <0>        -0.1481
     24 C17         6.0980   -2.6341   -4.1089 C.ar      1 <0>         0.1015
     25 C18         5.9851   -1.3869   -3.5158 C.ar      1 <0>        -0.1454
     26 C19         4.7567   -0.9374   -3.0778 C.ar      1 <0>        -0.0867
     27 F1          7.3023   -3.0672   -4.5417 F         1 <0>        -0.1376
     28 C20         0.9476   -1.9732   -4.7965 C.3       1 <0>        -0.0318
     29 C21        -0.0356   -3.1417   -4.7034 C.3       1 <0>        -0.1482
     30 C22         0.3910   -0.9131   -5.7491 C.3       1 <0>        -0.1461
     31 C23        -1.2980   -0.6730   -2.9381 C.2       1 <0>         0.6064
     32 O5         -1.7099    0.3162   -3.5138 O.2       1 <0>        -0.5124
     33 N2         -2.1515   -1.6593   -2.5985 N.am      1 <0>        -0.6712
     34 C24        -3.5250   -1.4986   -2.8080 C.ar      1 <0>         0.1515
     35 C25        -4.3128   -2.5959   -3.1307 C.ar      1 <0>        -0.1484
     36 C26        -5.6687   -2.4338   -3.3370 C.ar      1 <0>        -0.1006
     37 C27        -6.2421   -1.1806   -3.2229 C.ar      1 <0>        -0.1391
     38 C28        -5.4604   -0.0860   -2.9017 C.ar      1 <0>        -0.1004
     39 C29        -4.1049   -0.2423   -2.6881 C.ar      1 <0>        -0.1225
     40 H3          1.1113    2.1729   -0.5782 H         1 <0>         0.0556
     41 H4         -0.4511    2.0637   -1.4240 H         1 <0>         0.0636
     42 H5         -0.4084    2.3116    0.3381 H         1 <0>         0.0640
     43 H6          0.6047    0.0672    0.6293 H         1 <0>         0.0782
     44 H7         -0.9576   -0.0420   -0.2164 H         1 <0>         0.0827
     45 H8          4.0341   -0.1867   -1.0007 H         1 <0>         0.0970
     46 H9          2.7737    0.5331    0.0298 H         1 <0>         0.1027
     47 H10         2.2166   -1.7140    0.9179 H         1 <0>         0.0719
     48 H11         3.4769   -2.4338   -0.1126 H         1 <0>         0.0789
     49 H12         3.5145   -2.6679    2.9464 H         1 <0>         0.0635
     50 H13         4.6851   -3.3217    1.7757 H         1 <0>         0.0743
     51 H14         4.9888   -3.7096    4.8041 H         1 <0>         0.0563
     52 H15         6.0574   -4.2914    3.5049 H         1 <0>         0.0609
     53 H16         4.3994   -1.3367    4.7966 H         1 <0>         0.3502
     54 H17         2.9524   -0.2950    2.7681 H         1 <0>         0.3663
     55 H18         2.8774   -3.6297   -3.9366 H         1 <0>         0.1375
     56 H19         5.0735   -4.4105   -4.7217 H         1 <0>         0.1391
     57 H20         6.8596   -0.7638   -3.4003 H         1 <0>         0.1396
     58 H21         4.6689    0.0369   -2.6203 H         1 <0>         0.1322
     59 H22         1.9051   -2.3331   -5.1730 H         1 <0>         0.0799
     60 H23        -0.9931   -2.7818   -4.3269 H         1 <0>         0.0559
     61 H24        -0.1751   -3.5789   -5.6921 H         1 <0>         0.0575
     62 H25         0.3609   -3.8970   -4.0248 H         1 <0>         0.0558
     63 H26        -0.5665   -0.5531   -5.3726 H         1 <0>         0.0628
     64 H27         1.0915   -0.0806   -5.8155 H         1 <0>         0.0541
     65 H28         0.2516   -1.3503   -6.7378 H         1 <0>         0.0529
     66 H29        -1.8131   -2.4806   -2.2088 H         1 <0>         0.4115
     67 H30        -3.8655   -3.5748   -3.2207 H         1 <0>         0.1242
     68 H31        -6.2819   -3.2867   -3.5880 H         1 <0>         0.1243
     69 H32        -7.3025   -1.0564   -3.3854 H         1 <0>         0.1213
     70 H33        -5.9112    0.8915   -2.8133 H         1 <0>         0.1240
     71 H34        -3.4958    0.6122   -2.4325 H         1 <0>         0.1338
@<TRIPOS>BOND
     1    1    2 1
     2    1   40 1
     3    1   41 1
     4    1   42 1
     5    2    3 1
     6    2   43 1
     7    2   44 1
     8    3    7 1
     9    3    4 2
    10    4    5 1
    11    4   31 1
    12    5    6 2
    13    5   28 1
    14    6    7 1
    15    6   21 1
    16    7    8 1
    17    8    9 1
    18    8   45 1
    19    8   46 1
    20    9   10 1
    21    9   47 1
    22    9   48 1
    23   10   11 1
    24   10   12 1
    25   10   20 1
    26   12   13 1
    27   12   49 1
    28   12   50 1
    29   13   14 1
    30   13   15 1
    31   13   19 1
    32   15   16 1
    33   15   51 1
    34   15   52 1
    35   16   17 2
    36   16   18 1
    37   19   53 1
    38   20   54 1
    39   21   26 ar
    40   21   22 ar
    41   22   23 ar
    42   22   55 1
    43   23   24 ar
    44   23   56 1
    45   24   25 ar
    46   24   27 1
    47   25   26 ar
    48   25   57 1
    49   26   58 1
    50   28   29 1
    51   28   30 1
    52   28   59 1
    53   29   60 1
    54   29   61 1
    55   29   62 1
    56   30   63 1
    57   30   64 1
    58   30   65 1
    59   31   32 2
    60   31   33 am
    61   33   34 1
    62   33   66 1
    63   34   39 ar
    64   34   35 ar
    65   35   36 ar
    66   35   67 1
    67   36   37 ar
    68   36   68 1
    69   37   38 ar
    70   37   69 1
    71   38   39 ar
    72   38   70 1
    73   39   71 1
@<TRIPOS>MOLECULE
CHEMBL262322
   74    77     0     0     0
SMALL
USER_CHARGES

@<TRIPOS>ATOM
      1 C1          0.2770    0.2986    0.7941 C.3       1 <0>        -0.1747
      2 C2         -0.3132   -1.1046    0.9483 C.3       1 <0>         0.1172
      3 C3         -0.0944   -1.5953    2.3809 C.3       1 <0>        -0.1757
      4 N1         -1.7489   -1.0649    0.6596 N.pl3     1 <0>        -0.3937
      5 C4         -2.3770   -1.7896   -0.2968 C.2       1 <0>         0.0696
      6 C5         -3.7080   -1.4953   -0.2764 C.2       1 <0>        -0.0972
      7 C6         -3.9151   -0.5364    0.7483 C.2       1 <0>        -0.0585
      8 C7         -2.6727   -0.2907    1.3204 C.2       1 <0>        -0.0279
      9 C8         -2.3969    0.6298    2.4264 C.2       1 <0>         0.6044
     10 O1         -2.4153    0.2250    3.5742 O.2       1 <0>        -0.4963
     11 N2         -2.1227    1.9248    2.1729 N.am      1 <0>        -0.6667
     12 C9         -1.7149    2.7691    3.2102 C.ar      1 <0>         0.1445
     13 C10        -0.9546    2.2667    4.2585 C.ar      1 <0>        -0.1211
     14 C11        -0.5535    3.1033    5.2814 C.ar      1 <0>        -0.0987
     15 C12        -0.9083    4.4397    5.2631 C.ar      1 <0>        -0.1333
     16 C13        -1.6652    4.9431    4.2209 C.ar      1 <0>        -0.0993
     17 C14        -2.0643    4.1133    3.1917 C.ar      1 <0>        -0.1428
     18 C15        -5.2046    0.0783    1.1366 C.ar      1 <0>         0.2019
     19 C16        -5.2625    0.9229    2.2451 C.ar      1 <0>        -0.1748
     20 C17        -6.4752    1.4898    2.5954 C.ar      1 <0>        -0.0687
     21 C18        -7.5919    1.1941    1.8260 C.ar      1 <0>        -0.1808
     22 C19        -7.4629    0.3481    0.7396 C.ar      1 <0>         0.1074
     23 N3         -6.2957   -0.1745    0.4239 N.ar      1 <0>        -0.4597
     24 C20        -4.7484   -2.0715   -1.1630 C.ar      1 <0>         0.0057
     25 C21        -4.7135   -1.8241   -2.5341 C.ar      1 <0>        -0.0805
     26 C22        -5.6833   -2.3621   -3.3550 C.ar      1 <0>        -0.1528
     27 C23        -6.6910   -3.1468   -2.8181 C.ar      1 <0>         0.0936
     28 C24        -6.7296   -3.3953   -1.4558 C.ar      1 <0>        -0.1519
     29 C25        -5.7604   -2.8665   -0.6281 C.ar      1 <0>        -0.0509
     30 F1         -7.6390   -3.6708   -3.6255 F         1 <0>        -0.1445
     31 C26        -1.7114   -2.7649   -1.2333 C.3       1 <0>        -0.0530
     32 C27        -1.7066   -4.1577   -0.6001 C.3       1 <0>        -0.1453
     33 C28        -1.0309   -5.1478   -1.5509 C.3       1 <0>         0.1142
     34 H1         -1.5245   -5.1136   -2.5221 H         1 <0>         0.0992
     35 C29        -1.1364   -6.5612   -0.9747 C.3       1 <0>        -0.1866
     36 C30        -0.5724   -7.5658   -1.9815 C.3       1 <0>         0.1378
     37 H2         -1.0821   -7.4471   -2.9376 H         1 <0>         0.0930
     38 C31        -0.7908   -8.9876   -1.4602 C.3       1 <0>        -0.2195
     39 C32        -0.3473   -9.9792   -2.5047 C.2       1 <0>         0.4905
     40 O2          0.1017   -9.5853   -3.5675 O.co2     1 <0>        -0.6811
     41 O3         -0.4377  -11.1755   -2.2869 O.co2     1 <0>        -0.7134
     42 O4          0.8266   -7.3318   -2.1552 O.3       1 <0>        -0.5281
     43 O5          0.3460   -4.7973   -1.7038 O.3       1 <0>        -0.5421
     44 H3          1.3340    0.2793    1.0594 H         1 <0>         0.0824
     45 H4          0.1676    0.6272   -0.2394 H         1 <0>         0.0691
     46 H5         -0.2503    0.9889    1.4526 H         1 <0>         0.0662
     47 H6          0.1787   -1.7841    0.2524 H         1 <0>         0.1138
     48 H7         -0.6508   -0.9612    3.0711 H         1 <0>         0.0748
     49 H8         -0.4442   -2.6238    2.4700 H         1 <0>         0.0684
     50 H9          0.9676   -1.5505    2.6221 H         1 <0>         0.0790
     51 H10        -2.2083    2.2712    1.2709 H         1 <0>         0.4152
     52 H11        -0.6778    1.2229    4.2737 H         1 <0>         0.1323
     53 H12         0.0376    2.7132    6.0968 H         1 <0>         0.1265
     54 H13        -0.5940    5.0917    6.0647 H         1 <0>         0.1238
     55 H14        -1.9406    5.9874    4.2096 H         1 <0>         0.1267
     56 H15        -2.6513    4.5081    2.3756 H         1 <0>         0.1261
     57 H16        -4.3735    1.1312    2.8219 H         1 <0>         0.1286
     58 H17        -6.5511    2.1474    3.4487 H         1 <0>         0.1318
     59 H18        -8.5528    1.6204    2.0737 H         1 <0>         0.1333
     60 H19        -8.3303    0.1160    0.1395 H         1 <0>         0.1561
     61 H20        -3.9287   -1.2120   -2.9533 H         1 <0>         0.1270
     62 H21        -5.6570   -2.1710   -4.4176 H         1 <0>         0.1317
     63 H22        -7.5172   -4.0073   -1.0414 H         1 <0>         0.1299
     64 H23        -5.7887   -3.0645    0.4332 H         1 <0>         0.1217
     65 H24        -2.2592   -2.7958   -2.1751 H         1 <0>         0.0931
     66 H25        -0.6856   -2.4470   -1.4199 H         1 <0>         0.0813
     67 H26        -1.1588   -4.1268    0.3417 H         1 <0>         0.0613
     68 H27        -2.7324   -4.4755   -0.4135 H         1 <0>         0.0766
     69 H28        -0.5676   -6.6186   -0.0466 H         1 <0>         0.0612
     70 H29        -2.1821   -6.7951   -0.7750 H         1 <0>         0.0743
     71 H30        -0.2093   -9.1342   -0.5500 H         1 <0>         0.0555
     72 H31        -1.8486   -9.1366   -1.2435 H         1 <0>         0.0611
     73 H32         1.3440   -7.4206   -1.3431 H         1 <0>         0.3491
     74 H33         0.8484   -4.8068   -0.8777 H         1 <0>         0.3626
@<TRIPOS>BOND
     1    1    2 1
     2    1   44 1
     3    1   45 1
     4    1   46 1
     5    2    3 1
     6    2    4 1
     7    2   47 1
     8    3   48 1
     9    3   49 1
    10    3   50 1
    11    4    8 1
    12    4    5 1
    13    5    6 2
    14    5   31 1
    15    6    7 1
    16    6   24 1
    17    7    8 2
    18    7   18 1
    19    8    9 1
    20    9   10 2
    21    9   11 am
    22   11   12 1
    23   11   51 1
    24   12   17 ar
    25   12   13 ar
    26   13   14 ar
    27   13   52 1
    28   14   15 ar
    29   14   53 1
    30   15   16 ar
    31   15   54 1
    32   16   17 ar
    33   16   55 1
    34   17   56 1
    35   18   23 ar
    36   18   19 ar
    37   19   20 ar
    38   19   57 1
    39   20   21 ar
    40   20   58 1
    41   21   22 ar
    42   21   59 1
    43   22   23 ar
    44   22   60 1
    45   24   29 ar
    46   24   25 ar
    47   25   26 ar
    48   25   61 1
    49   26   27 ar
    50   26   62 1
    51   27   28 ar
    52   27   30 1
    53   28   29 ar
    54   28   63 1
    55   29   64 1
    56   31   32 1
    57   31   65 1
    58   31   66 1
    59   32   33 1
    60   32   67 1
    61   32   68 1
    62   33   34 1
    63   33   35 1
    64   33   43 1
    65   35   36 1
    66   35   69 1
    67   35   70 1
    68   36   37 1
    69   36   38 1
    70   36   42 1
    71   38   39 1
    72   38   71 1
    73   38   72 1
    74   39   40 2
    75   39   41 1
    76   42   73 1
    77   43   74 1
@<TRIPOS>MOLECULE
CHEMBL398403
   70    72     0     0     0
SMALL
USER_CHARGES

@<TRIPOS>ATOM
      1 C1          0.0211    1.4893   -0.0055 C.3       1 <0>        -0.1716
      2 C2          0.0187   -0.0407   -0.0044 C.3       1 <0>         0.0938
      3 N1         -1.3632   -0.5268    0.0102 N.pl3     1 <0>        -0.4070
      4 C3         -2.0574   -0.8823    1.1106 C.2       1 <0>         0.0732
      5 C4         -3.3063   -1.2814    0.7279 C.2       1 <0>        -0.1446
      6 C5         -3.3759   -1.1633   -0.6736 C.2       1 <0>        -0.0904
      7 C6         -2.1657   -0.6894   -1.0966 C.2       1 <0>        -0.0434
      8 C7         -1.7874   -0.4067   -2.4857 C.2       1 <0>         0.5939
      9 O1         -1.9942    0.6945   -2.9606 O.2       1 <0>        -0.5301
     10 N2         -1.2109   -1.3666   -3.2358 N.am      1 <0>        -0.7126
     11 C8         -0.7319   -1.0536   -4.5844 C.3       1 <0>         0.1680
     12 C9         -0.1341   -2.2900   -5.2048 C.ar      1 <0>        -0.1277
     13 C10         1.2115   -2.5643   -5.0341 C.ar      1 <0>        -0.1176
     14 C11         1.7655   -3.6938   -5.5993 C.ar      1 <0>        -0.0884
     15 C12         0.9647   -4.5622   -6.3454 C.ar      1 <0>        -0.1217
     16 C13        -0.3932   -4.2790   -6.5132 C.ar      1 <0>        -0.0883
     17 C14        -0.9346   -3.1485   -5.9378 C.ar      1 <0>        -0.1166
     18 C15         1.5502   -5.7722   -6.9536 C.2       1 <0>         0.5178
     19 O2          2.7391   -6.0170   -6.8052 O.co2     1 <0>        -0.6860
     20 O3          0.8465   -6.5303   -7.6060 O.co2     1 <0>        -0.6863
     21 C16        -4.5627   -1.4917   -1.5424 C.3       1 <0>        -0.0841
     22 C17        -4.3911   -1.7539    1.6247 C.ar      1 <0>        -0.0022
     23 C18        -4.2344   -2.9336    2.3490 C.ar      1 <0>        -0.0817
     24 C19        -5.2452   -3.3692    3.1815 C.ar      1 <0>        -0.1504
     25 C20        -6.4145   -2.6355    3.2971 C.ar      1 <0>         0.0895
     26 C21        -6.5744   -1.4619    2.5787 C.ar      1 <0>        -0.1518
     27 C22        -5.5661   -1.0159    1.7487 C.ar      1 <0>        -0.0791
     28 F1         -7.4020   -3.0660    4.1125 F         1 <0>        -0.1441
     29 C23        -1.5413   -0.8452    2.5260 C.3       1 <0>        -0.0510
     30 C24        -1.8420    0.5223    3.1428 C.3       1 <0>        -0.1449
     31 C25        -1.3180    0.5599    4.5798 C.3       1 <0>         0.1141
     32 H1         -1.7400   -0.2728    5.1424 H         1 <0>         0.0975
     33 C26        -1.7274    1.8793    5.2375 C.3       1 <0>        -0.1863
     34 C27        -1.3126    1.8653    6.7102 C.3       1 <0>         0.1378
     35 H2         -1.7348    0.9869    7.1983 H         1 <0>         0.0924
     36 C28        -1.8311    3.1297    7.3981 C.3       1 <0>        -0.2193
     37 C29        -1.5297    3.0587    8.8730 C.2       1 <0>         0.4912
     38 O4         -0.9535    2.0869    9.3313 O.co2     1 <0>        -0.6811
     39 O5         -1.8620    3.9731    9.6078 O.co2     1 <0>        -0.7152
     40 O6          0.1128    1.8229    6.8031 O.3       1 <0>        -0.5282
     41 O7          0.1071    0.4546    4.5701 O.3       1 <0>        -0.5421
     42 H3          1.0493    1.8511   -0.0163 H         1 <0>         0.0759
     43 H4         -0.5013    1.8528   -0.8904 H         1 <0>         0.0683
     44 H5         -0.4830    1.8541    0.8895 H         1 <0>         0.0654
     45 H6          0.5228   -0.4054   -0.8993 H         1 <0>         0.0878
     46 H7          0.5411   -0.4041    0.8806 H         1 <0>         0.0992
     47 H8         -1.1131   -2.2648   -2.8827 H         1 <0>         0.4061
     48 H9         -1.5660   -0.7076   -5.1950 H         1 <0>         0.0749
     49 H10         0.0261   -0.2723   -4.5286 H         1 <0>         0.0725
     50 H11         1.8293   -1.8921   -4.4571 H         1 <0>         0.1144
     51 H12         2.8160   -3.9062   -5.4659 H         1 <0>         0.1275
     52 H13        -1.0182   -4.9459   -7.0886 H         1 <0>         0.1276
     53 H14        -1.9850   -2.9306   -6.0629 H         1 <0>         0.1157
     54 H15        -5.1877   -0.6057   -1.6537 H         1 <0>         0.0656
     55 H16        -4.2159   -1.8172   -2.5232 H         1 <0>         0.0593
     56 H17        -5.1427   -2.2896   -1.0788 H         1 <0>         0.0672
     57 H18        -3.3234   -3.5066    2.2589 H         1 <0>         0.1319
     58 H19        -5.1246   -4.2837    3.7433 H         1 <0>         0.1338
     59 H20        -7.4876   -0.8929    2.6717 H         1 <0>         0.1327
     60 H21        -5.6897   -0.0985    1.1923 H         1 <0>         0.1307
     61 H22        -2.0307   -1.6234    3.1117 H         1 <0>         0.0879
     62 H23        -0.4645   -1.0144    2.5247 H         1 <0>         0.0792
     63 H24        -1.3526    1.3005    2.5572 H         1 <0>         0.0627
     64 H25        -2.9187    0.6915    3.1442 H         1 <0>         0.0744
     65 H26        -1.2339    2.7074    4.7289 H         1 <0>         0.0612
     66 H27        -2.8082    2.0010    5.1657 H         1 <0>         0.0736
     67 H28        -1.3414    4.0038    6.9688 H         1 <0>         0.0556
     68 H29        -2.9083    3.2078    7.2508 H         1 <0>         0.0608
     69 H30         0.5565    2.5756    6.3888 H         1 <0>         0.3492
     70 H31         0.5507    1.1645    4.0860 H         1 <0>         0.3630
@<TRIPOS>BOND
     1    1    2 1
     2    1   42 1
     3    1   43 1
     4    1   44 1
     5    2    3 1
     6    2   45 1
     7    2   46 1
     8    3    7 1
     9    3    4 1
    10    4    5 2
    11    4   29 1
    12    5    6 1
    13    5   22 1
    14    6    7 2
    15    6   21 1
    16    7    8 1
    17    8    9 2
    18    8   10 am
    19   10   11 1
    20   10   47 1
    21   11   12 1
    22   11   48 1
    23   11   49 1
    24   12   17 ar
    25   12   13 ar
    26   13   14 ar
    27   13   50 1
    28   14   15 ar
    29   14   51 1
    30   15   16 ar
    31   15   18 1
    32   16   17 ar
    33   16   52 1
    34   17   53 1
    35   18   19 2
    36   18   20 1
    37   21   54 1
    38   21   55 1
    39   21   56 1
    40   22   27 ar
    41   22   23 ar
    42   23   24 ar
    43   23   57 1
    44   24   25 ar
    45   24   58 1
    46   25   26 ar
    47   25   28 1
    48   26   27 ar
    49   26   59 1
    50   27   60 1
    51   29   30 1
    52   29   61 1
    53   29   62 1
    54   30   31 1
    55   30   63 1
    56   30   64 1
    57   31   32 1
    58   31   33 1
    59   31   41 1
    60   33   34 1
    61   33   65 1
    62   33   66 1
    63   34   35 1
    64   34   36 1
    65   34   40 1
    66   36   37 1
    67   36   67 1
    68   36   68 1
    69   37   38 2
    70   37   39 1
    71   40   69 1
    72   41   70 1
@<TRIPOS>MOLECULE
CHEMBL39312
   48    49     0     0     0
SMALL
USER_CHARGES

@<TRIPOS>ATOM
      1 C1         -0.0167    1.3781    0.0096 C.ar      1 <0>        -0.1061
      2 C2          1.1709    2.0855    0.0021 C.ar      1 <0>        -0.1223
      3 C3          2.3773    1.4107   -0.0130 C.ar      1 <0>        -0.0932
      4 C4          2.3960    0.0285   -0.0201 C.ar      1 <0>        -0.0990
      5 C5          1.2084   -0.6789   -0.0117 C.ar      1 <0>        -0.0929
      6 C6          0.0021   -0.0041    0.0020 C.ar      1 <0>        -0.1213
      7 C7          3.7112   -0.7071   -0.0376 C.3       1 <0>         0.0992
      8 O1          4.1410   -0.9464    1.3041 O.3       1 <0>        -0.2892
      9 C8          5.3186   -1.6049    1.4665 C.ar      1 <0>         0.1593
     10 C9          6.0481   -2.0074    0.3572 C.ar      1 <0>        -0.1992
     11 C10         7.2458   -2.6773    0.5244 C.ar      1 <0>         0.0092
     12 C11         7.7169   -2.9468    1.7974 C.ar      1 <0>        -0.1385
     13 C12         6.9907   -2.5467    2.9048 C.ar      1 <0>         0.0107
     14 C13         5.7955   -1.8706    2.7416 C.ar      1 <0>        -0.0939
     15 C14         5.0083   -1.4286    3.9482 C.3       1 <0>        -0.0739
     16 C15         4.0372   -2.5376    4.3580 C.3       1 <0>        -0.1408
     17 C16         3.2381   -2.0889    5.5831 C.3       1 <0>         0.1153
     18 H1          3.9246   -1.7969    6.3777 H         1 <0>         0.0960
     19 C17         2.3575   -3.2422    6.0681 C.3       1 <0>        -0.1866
     20 C18         1.6532   -2.8360    7.3641 C.3       1 <0>         0.1377
     21 H2          2.3951   -2.5179    8.0966 H         1 <0>         0.0922
     22 C19         0.8715   -4.0300    7.9156 C.3       1 <0>        -0.2191
     23 C20         0.2788   -3.6680    9.2530 C.2       1 <0>         0.4904
     24 O2          0.4644   -2.5579    9.7217 O.co2     1 <0>        -0.6809
     25 O3         -0.3864   -4.4852    9.8664 O.co2     1 <0>        -0.7140
     26 O4          0.7527   -1.7584    7.0994 O.3       1 <0>        -0.5277
     27 O5          2.4140   -0.9753    5.2325 O.3       1 <0>        -0.5403
     28 Cl1         7.5840   -2.8868    4.5004 Cl        1 <0>        -0.0396
     29 Cl2         8.1591   -3.1811   -0.8633 Cl        1 <0>        -0.0570
     30 H3         -0.9591    1.9053    0.0259 H         1 <0>         0.1247
     31 H4          1.1563    3.1654    0.0076 H         1 <0>         0.1252
     32 H5          3.3051    1.9634   -0.0196 H         1 <0>         0.1233
     33 H6          1.2231   -1.7588   -0.0176 H         1 <0>         0.1238
     34 H7         -0.9258   -0.5567    0.0082 H         1 <0>         0.1261
     35 H8          3.5884   -1.6586   -0.5549 H         1 <0>         0.0735
     36 H9          4.4573   -0.1052   -0.5563 H         1 <0>         0.0732
     37 H10         5.6804   -1.7978   -0.6364 H         1 <0>         0.1434
     38 H11         8.6526   -3.4705    1.9265 H         1 <0>         0.1450
     39 H12         5.6916   -1.2214    4.7718 H         1 <0>         0.0796
     40 H13         4.4475   -0.5259    3.7056 H         1 <0>         0.0909
     41 H14         3.3539   -2.7448    3.5344 H         1 <0>         0.0645
     42 H15         4.5980   -3.4402    4.6007 H         1 <0>         0.0690
     43 H16         1.6125   -3.4753    5.3073 H         1 <0>         0.0612
     44 H17         2.9770   -4.1202    6.2510 H         1 <0>         0.0727
     45 H18         0.0718   -4.2921    7.2228 H         1 <0>         0.0556
     46 H19         1.5429   -4.8805    8.0340 H         1 <0>         0.0606
     47 H20         0.0639   -1.9708    6.4548 H         1 <0>         0.3492
     48 H21         1.7771   -1.1632    4.5295 H         1 <0>         0.3640
@<TRIPOS>BOND
     1    1    6 ar
     2    1    2 ar
     3    1   30 1
     4    2    3 ar
     5    2   31 1
     6    3    4 ar
     7    3   32 1
     8    4    5 ar
     9    4    7 1
    10    5    6 ar
    11    5   33 1
    12    6   34 1
    13    7    8 1
    14    7   35 1
    15    7   36 1
    16    8    9 1
    17    9   14 ar
    18    9   10 ar
    19   10   11 ar
    20   10   37 1
    21   11   12 ar
    22   11   29 1
    23   12   13 ar
    24   12   38 1
    25   13   14 ar
    26   13   28 1
    27   14   15 1
    28   15   16 1
    29   15   39 1
    30   15   40 1
    31   16   17 1
    32   16   41 1
    33   16   42 1
    34   17   18 1
    35   17   19 1
    36   17   27 1
    37   19   20 1
    38   19   43 1
    39   19   44 1
    40   20   21 1
    41   20   22 1
    42   20   26 1
    43   22   23 1
    44   22   45 1
    45   22   46 1
    46   23   24 2
    47   23   25 1
    48   26   47 1
    49   27   48 1
@<TRIPOS>MOLECULE
CHEMBL293944
   67    68     0     0     0
SMALL
USER_CHARGES

@<TRIPOS>ATOM
      1 C1         -0.5552    1.2925   -0.2745 C.3       1 <0>        -0.1559
      2 C2         -0.4355   -0.2328   -0.2693 C.3       1 <0>        -0.1066
      3 C3          0.3735   -0.6850   -1.4866 C.3       1 <0>        -0.0885
      4 H1          1.3360   -0.1736   -1.4936 H         1 <0>         0.1127
      5 C4         -0.3947   -0.3436   -2.7650 C.3       1 <0>        -0.1458
      6 C5          0.5962   -2.1738   -1.4169 C.2       1 <0>         0.4668
      7 O1          0.1533   -2.8081   -0.4888 O.2       1 <0>        -0.5082
      8 O2          1.2866   -2.7953   -2.3859 O.3       1 <0>        -0.3365
      9 C6          1.4594   -4.2075   -2.2555 C.3       1 <0>         0.0945
     10 H2          1.4807   -4.4778   -1.2008 H         1 <0>         0.0923
     11 C7          0.2418   -4.8858   -2.9004 C.3       1 <0>        -0.1345
     12 C8          0.3533   -6.4018   -2.7393 C.3       1 <0>        -0.0861
     13 H3          0.3945   -6.6577   -1.6809 H         1 <0>         0.0731
     14 C9          1.6287   -6.8848   -3.4343 C.3       1 <0>        -0.1074
     15 C10         2.8399   -6.2034   -2.8137 C.3       1 <0>        -0.0528
     16 H4          3.7358   -6.5313   -3.3279 H         1 <0>         0.0854
     17 C11         2.7317   -4.6767   -2.9510 C.3       1 <0>        -0.0661
     18 C12         3.9993   -4.0829   -2.3448 C.3       1 <0>        -0.0752
     19 H5          4.8645   -4.5271   -2.8850 H         1 <0>         0.0674
     20 C13         4.1615   -4.4326   -0.8735 C.3       1 <0>        -0.0559
     21 H6          5.2438   -4.5102   -0.6633 H         1 <0>         0.0756
     22 C14         3.5409   -5.7451   -0.5126 C.2       1 <0>        -0.1433
     23 C15         2.9635   -6.5426   -1.3578 C.2       1 <0>        -0.1535
     24 C16         3.6042   -3.3190    0.0123 C.3       1 <0>        -0.1523
     25 C17         4.0830   -2.5712   -2.5514 C.3       1 <0>        -0.1073
     26 C18         4.1849   -2.2657   -4.0471 C.3       1 <0>        -0.1686
     27 C19         4.4058   -0.7880   -4.2441 C.2       1 <0>         0.3513
     28 O3          4.4746   -0.0549   -3.2869 O.2       1 <0>        -0.4299
     29 C20         4.5409   -0.2252   -5.6355 C.3       1 <0>        -0.2097
     30 C21         4.7560    1.2874   -5.5552 C.3       1 <0>         0.1422
     31 H7          3.9478    1.7393   -4.9801 H         1 <0>         0.0989
     32 C22         4.7686    1.8765   -6.9672 C.3       1 <0>        -0.2191
     33 C23         4.8572    3.3786   -6.8840 C.2       1 <0>         0.4907
     34 O4          4.9059    3.9271   -5.7963 O.co2     1 <0>        -0.6792
     35 O5          4.8803    4.0453   -7.9046 O.co2     1 <0>        -0.7128
     36 O6          6.0049    1.5576   -4.9152 O.3       1 <0>        -0.5320
     37 C24        -0.8617   -7.0764   -3.3805 C.3       1 <0>        -0.1467
     38 H8          0.4401    1.7352   -0.2341 H         1 <0>         0.0603
     39 H9         -1.0593    1.6144   -1.1857 H         1 <0>         0.0604
     40 H10        -1.1315    1.6147    0.5928 H         1 <0>         0.0583
     41 H11         0.0686   -0.5546    0.6419 H         1 <0>         0.0703
     42 H12        -1.4308   -0.6754   -0.3097 H         1 <0>         0.0679
     43 H13        -1.3572   -0.8550   -2.7581 H         1 <0>         0.0574
     44 H14        -0.5558    0.7333   -2.8154 H         1 <0>         0.0767
     45 H15         0.1817   -0.6657   -3.6322 H         1 <0>         0.0696
     46 H16        -0.6649   -4.5299   -2.4121 H         1 <0>         0.0656
     47 H17         0.2113   -4.6302   -3.9594 H         1 <0>         0.0710
     48 H18         1.7178   -7.9644   -3.3158 H         1 <0>         0.0672
     49 H19         1.5769   -6.6392   -4.4949 H         1 <0>         0.0682
     50 H20         2.6774   -4.4278   -4.0189 H         1 <0>         0.0863
     51 H21         3.5738   -6.0544    0.5234 H         1 <0>         0.1023
     52 H22         2.5600   -7.4754   -1.0062 H         1 <0>         0.1065
     53 H23         2.5386   -3.1983   -0.1831 H         1 <0>         0.0562
     54 H24         3.7542   -3.5788    1.0602 H         1 <0>         0.0521
     55 H25         4.1221   -2.3856   -0.2084 H         1 <0>         0.0663
     56 H26         3.1890   -2.0988   -2.1442 H         1 <0>         0.0825
     57 H27         4.9640   -2.1829   -2.0404 H         1 <0>         0.0685
     58 H28         5.0216   -2.8183   -4.4746 H         1 <0>         0.0884
     59 H29         3.2612   -2.5642   -4.5427 H         1 <0>         0.0950
     60 H30         5.3933   -0.6875   -6.1333 H         1 <0>         0.0914
     61 H31         3.6328   -0.4335   -6.2014 H         1 <0>         0.0982
     62 H32         5.6293    1.4914   -7.5139 H         1 <0>         0.0580
     63 H33         3.8526    1.5948   -7.4865 H         1 <0>         0.0632
     64 H34         6.7704    1.1844   -5.3733 H         1 <0>         0.3505
     65 H35        -0.8987   -6.8264   -4.4408 H         1 <0>         0.0555
     66 H36        -0.7805   -8.1572   -3.2647 H         1 <0>         0.0554
     67 H37        -1.7713   -6.7261   -2.8926 H         1 <0>         0.0539
@<TRIPOS>BOND
     1    1    2 1
     2    1   38 1
     3    1   39 1
     4    1   40 1
     5    2    3 1
     6    2   41 1
     7    2   42 1
     8    3    4 1
     9    3    5 1
    10    3    6 1
    11    5   43 1
    12    5   44 1
    13    5   45 1
    14    6    7 2
    15    6    8 1
    16    8    9 1
    17    9   10 1
    18    9   17 1
    19    9   11 1
    20   11   12 1
    21   11   46 1
    22   11   47 1
    23   12   13 1
    24   12   14 1
    25   12   37 1
    26   14   15 1
    27   14   48 1
    28   14   49 1
    29   15   16 1
    30   15   23 1
    31   15   17 1
    32   17   18 1
    33   17   50 1
    34   18   19 1
    35   18   20 1
    36   18   25 1
    37   20   21 1
    38   20   22 1
    39   20   24 1
    40   22   23 2
    41   22   51 1
    42   23   52 1
    43   24   53 1
    44   24   54 1
    45   24   55 1
    46   25   26 1
    47   25   56 1
    48   25   57 1
    49   26   27 1
    50   26   58 1
    51   26   59 1
    52   27   28 2
    53   27   29 1
    54   29   30 1
    55   29   60 1
    56   29   61 1
    57   30   31 1
    58   30   32 1
    59   30   36 1
    60   32   33 1
    61   32   62 1
    62   32   63 1
    63   33   34 2
    64   33   35 1
    65   36   64 1
    66   37   65 1
    67   37   66 1
    68   37   67 1
@<TRIPOS>MOLECULE
CHEMBL293944__1
   67    68     0     0     0
SMALL
USER_CHARGES

@<TRIPOS>ATOM
      1 C1         -1.2299    1.4136   -0.0774 C.3       1 <0>        -0.1528
      2 C2         -1.1681   -0.1148   -0.1090 C.3       1 <0>        -0.1125
      3 C3         -0.1448   -0.5624   -1.1546 C.3       1 <0>        -0.0833
      4 H1          0.8166   -0.0927   -0.9465 H         1 <0>         0.1070
      5 C4         -0.6240   -0.1478   -2.5473 C.3       1 <0>        -0.1484
      6 C5          0.0060   -2.0608   -1.1008 C.2       1 <0>         0.4563
      7 O1         -0.6388   -2.7048   -0.3074 O.2       1 <0>        -0.4990
      8 O2          0.8567   -2.6802   -1.9341 O.3       1 <0>        -0.3322
      9 C6          0.9491   -4.1022   -1.8279 C.3       1 <0>         0.0904
     10 H2          0.7452   -4.4060   -0.8012 H         1 <0>         0.0915
     11 C7         -0.0695   -4.7548   -2.7685 C.3       1 <0>        -0.1330
     12 C8          0.2179   -4.3512   -4.2147 C.3       1 <0>        -0.0869
     13 H3         -0.4998   -4.8377   -4.8753 H         1 <0>         0.0677
     14 C9          1.6376   -4.7748   -4.6063 C.3       1 <0>        -0.1031
     15 C10         2.6295   -4.0983   -3.6638 C.3       1 <0>        -0.0551
     16 H4          2.4896   -3.0188   -3.7218 H         1 <0>         0.0923
     17 C11         2.3516   -4.5553   -2.2270 C.3       1 <0>        -0.0715
     18 C12         3.4127   -3.9449   -1.3106 C.3       1 <0>        -0.0747
     19 H5          3.4630   -2.8681   -1.4721 H         1 <0>         0.0777
     20 C13         4.7626   -4.5826   -1.6531 C.3       1 <0>        -0.0572
     21 H6          5.5603   -4.0070   -1.1836 H         1 <0>         0.0786
     22 C14         4.9802   -4.6081   -3.1365 C.2       1 <0>        -0.1474
     23 C15         4.0470   -4.4213   -4.0180 C.2       1 <0>        -0.1479
     24 C16         4.7929   -6.0150   -1.1164 C.3       1 <0>        -0.1494
     25 C17         3.0606   -4.2322    0.1503 C.3       1 <0>        -0.1153
     26 C18         4.0553   -3.5149    1.0652 C.3       1 <0>        -0.1698
     27 C19         3.7084   -3.7978    2.5042 C.2       1 <0>         0.3467
     28 O3          2.7632   -4.5006    2.7705 O.2       1 <0>        -0.4266
     29 C20         4.5411   -3.2037    3.6108 C.3       1 <0>        -0.2089
     30 C21         3.9794   -3.6437    4.9643 C.3       1 <0>         0.1412
     31 H7          2.9241   -3.3774    5.0235 H         1 <0>         0.0987
     32 C22         4.7462   -2.9422    6.0871 C.3       1 <0>        -0.2186
     33 C23         4.1150   -3.2794    7.4133 C.2       1 <0>         0.4905
     34 O4          3.1420   -4.0128    7.4565 O.co2     1 <0>        -0.6789
     35 O5          4.5773   -2.8188    8.4432 O.co2     1 <0>        -0.7127
     36 O6          4.1221   -5.0588    5.1019 O.3       1 <0>        -0.5314
     37 C24         0.0873   -2.8331   -4.3534 C.3       1 <0>        -0.1572
     38 H8         -0.2486    1.8116    0.1810 H         1 <0>         0.0567
     39 H9         -1.5262    1.7856   -1.0581 H         1 <0>         0.0574
     40 H10        -1.9589    1.7324    0.6676 H         1 <0>         0.0602
     41 H11        -0.8718   -0.4868    0.8718 H         1 <0>         0.0746
     42 H12        -2.1494   -0.5129   -0.3673 H         1 <0>         0.0699
     43 H13        -1.5854   -0.6174   -2.7554 H         1 <0>         0.0595
     44 H14        -0.7331    0.9361   -2.5862 H         1 <0>         0.0724
     45 H15         0.1050   -0.4666   -3.2922 H         1 <0>         0.0713
     46 H16        -0.0041   -5.8389   -2.6760 H         1 <0>         0.0771
     47 H17        -1.0735   -4.4304   -2.4953 H         1 <0>         0.0674
     48 H18         1.7326   -5.8573   -4.5210 H         1 <0>         0.0622
     49 H19         1.8407   -4.4678   -5.6323 H         1 <0>         0.0648
     50 H20         2.4104   -5.6425   -2.1750 H         1 <0>         0.0906
     51 H21         5.9794   -4.8093   -3.4935 H         1 <0>         0.1005
     52 H22         4.3149   -4.4890   -5.0621 H         1 <0>         0.1016
     53 H23         3.9893   -6.5917   -1.5743 H         1 <0>         0.0558
     54 H24         5.7521   -6.4732   -1.3577 H         1 <0>         0.0535
     55 H25         4.6591   -6.0007   -0.0347 H         1 <0>         0.0662
     56 H26         2.0523   -3.8741    0.3582 H         1 <0>         0.0677
     57 H27         3.1094   -5.3059    0.3315 H         1 <0>         0.0774
     58 H28         5.0636   -3.8730    0.8573 H         1 <0>         0.0945
     59 H29         4.0065   -2.4412    0.8840 H         1 <0>         0.0914
     60 H30         5.5709   -3.5480    3.5156 H         1 <0>         0.0926
     61 H31         4.5139   -2.1162    3.5423 H         1 <0>         0.0982
     62 H32         5.7836   -3.2769    6.0829 H         1 <0>         0.0585
     63 H33         4.7118   -1.8638    5.9320 H         1 <0>         0.0633
     64 H34         5.0373   -5.3679    5.0587 H         1 <0>         0.3504
     65 H35         0.9097   -2.3481   -3.8275 H         1 <0>         0.0865
     66 H36         0.1196   -2.5605   -5.4083 H         1 <0>         0.0454
     67 H37        -0.8604   -2.5091   -3.9232 H         1 <0>         0.0476
@<TRIPOS>BOND
     1    1    2 1
     2    1   38 1
     3    1   39 1
     4    1   40 1
     5    2    3 1
     6    2   41 1
     7    2   42 1
     8    3    4 1
     9    3    5 1
    10    3    6 1
    11    5   43 1
    12    5   44 1
    13    5   45 1
    14    6    7 2
    15    6    8 1
    16    8    9 1
    17    9   10 1
    18    9   17 1
    19    9   11 1
    20   11   12 1
    21   11   46 1
    22   11   47 1
    23   12   13 1
    24   12   14 1
    25   12   37 1
    26   14   15 1
    27   14   48 1
    28   14   49 1
    29   15   16 1
    30   15   23 1
    31   15   17 1
    32   17   18 1
    33   17   50 1
    34   18   19 1
    35   18   20 1
    36   18   25 1
    37   20   21 1
    38   20   22 1
    39   20   24 1
    40   22   23 2
    41   22   51 1
    42   23   52 1
    43   24   53 1
    44   24   54 1
    45   24   55 1
    46   25   26 1
    47   25   56 1
    48   25   57 1
    49   26   27 1
    50   26   58 1
    51   26   59 1
    52   27   28 2
    53   27   29 1
    54   29   30 1
    55   29   60 1
    56   29   61 1
    57   30   31 1
    58   30   32 1
    59   30   36 1
    60   32   33 1
    61   32   62 1
    62   32   63 1
    63   33   34 2
    64   33   35 1
    65   36   64 1
    66   37   65 1
    67   37   66 1
    68   37   67 1
@<TRIPOS>MOLECULE
CHEMBL468862
   66    69     0     0     0
SMALL
USER_CHARGES

@<TRIPOS>ATOM
      1 C1         -0.0187    1.5258    0.0104 C.3       1 <0>        -0.1408
      2 C2          0.0021   -0.0041    0.0020 C.3       1 <0>        -0.0453
      3 C3          0.7421   -0.5109    1.2415 C.3       1 <0>        -0.1404
      4 C4         -1.4117   -0.5257    0.0127 C.ar      1 <0>         0.2324
      5 C5         -1.8760   -1.3354   -1.0281 C.ar      1 <0>        -0.1757
      6 C6         -3.2072   -1.7966   -0.9692 C.ar      1 <0>         0.2605
      7 N1         -3.9622   -1.4446    0.0679 N.ar      1 <0>        -0.5041
      8 C7         -3.4759   -0.6755    1.0290 C.ar      1 <0>         0.5529
      9 N2         -2.2275   -0.2285    1.0085 N.ar      1 <0>        -0.5446
     10 N3         -4.2945   -0.3315    2.0918 N.pl3     1 <0>        -0.5898
     11 C8         -5.6105   -0.7950    2.1378 C.2       1 <0>         0.4895
     12 N4         -6.4060   -0.4760    3.1357 N.2       1 <0>        -0.5458
     13 C9         -7.6426   -0.9523    3.1128 C.2       1 <0>         0.1157
     14 S1         -7.6662   -1.8417    1.6872 S.3       1 <0>         0.2902
     15 N5         -6.0933   -1.5596    1.1810 N.2       1 <0>        -0.4357
     16 C10        -8.7294   -0.7515    4.0957 C.ar      1 <0>        -0.0311
     17 C11        -8.5138    0.0355    5.2276 C.ar      1 <0>        -0.0632
     18 C12        -9.5318    0.2193    6.1404 C.ar      1 <0>        -0.1236
     19 C13       -10.7644   -0.3747    5.9354 C.ar      1 <0>        -0.0937
     20 C14       -10.9846   -1.1561    4.8151 C.ar      1 <0>        -0.1190
     21 C15        -9.9764   -1.3434    3.8920 C.ar      1 <0>        -0.0853
     22 C16        -3.7550   -2.6569   -2.0428 C.ar      1 <0>        -0.0711
     23 C17        -3.3517   -2.4683   -3.3649 C.ar      1 <0>        -0.0493
     24 C18        -3.8644   -3.2724   -4.3611 C.ar      1 <0>        -0.1596
     25 C19        -4.7788   -4.2666   -4.0506 C.ar      1 <0>         0.1201
     26 C20        -5.1829   -4.4575   -2.7387 C.ar      1 <0>        -0.1650
     27 C21        -4.6716   -3.6623   -1.7346 C.ar      1 <0>        -0.0393
     28 F1         -5.2783   -5.0518   -5.0300 F         1 <0>        -0.1357
     29 C22        -0.9973   -1.6969   -2.1575 C.2       1 <0>        -0.1248
     30 C23        -0.8841   -2.9655   -2.5303 C.2       1 <0>        -0.1502
     31 C24         0.0131   -3.3347   -3.6835 C.3       1 <0>         0.1415
     32 H1         -0.5897   -3.7320   -4.5001 H         1 <0>         0.1111
     33 C25         1.0180   -4.3950   -3.2287 C.3       1 <0>        -0.1811
     34 C26         1.8463   -4.8604   -4.4280 C.3       1 <0>         0.1378
     35 H2          1.1794   -5.2044   -5.2186 H         1 <0>         0.0937
     36 C27         2.7639   -6.0074   -3.9998 C.3       1 <0>        -0.2192
     37 C28         3.4894   -6.5471   -5.2054 C.2       1 <0>         0.4905
     38 O1          3.2909   -6.0595   -6.3051 O.co2     1 <0>        -0.6808
     39 O2          4.2748   -7.4713   -5.0810 O.co2     1 <0>        -0.7130
     40 O3          2.6371   -3.7728   -4.9115 O.3       1 <0>        -0.5276
     41 O4          0.7156   -2.1736   -4.1311 O.3       1 <0>        -0.5369
     42 H3          1.0039    1.9031    0.0027 H         1 <0>         0.0655
     43 H4         -0.5459    1.8868   -0.8726 H         1 <0>         0.0543
     44 H5         -0.5289    1.8773    0.9072 H         1 <0>         0.0643
     45 H6          0.5123   -0.3556   -0.8948 H         1 <0>         0.0972
     46 H7          0.2319   -0.1594    2.1383 H         1 <0>         0.0642
     47 H8          0.7568   -1.6008    1.2356 H         1 <0>         0.0542
     48 H9          1.7647   -0.1336    1.2338 H         1 <0>         0.0656
     49 H10        -3.9533    0.2315    2.8043 H         1 <0>         0.4381
     50 H11        -7.5519    0.4993    5.3889 H         1 <0>         0.1360
     51 H12        -9.3661    0.8279    7.0171 H         1 <0>         0.1315
     52 H13       -11.5580   -0.2280    6.6531 H         1 <0>         0.1295
     53 H14       -11.9489   -1.6173    4.6609 H         1 <0>         0.1338
     54 H15       -10.1508   -1.9502    3.0158 H         1 <0>         0.1319
     55 H16        -2.6395   -1.6937   -3.6079 H         1 <0>         0.1450
     56 H17        -3.5531   -3.1270   -5.3850 H         1 <0>         0.1431
     57 H18        -5.8963   -5.2330   -2.5017 H         1 <0>         0.1383
     58 H19        -4.9835   -3.8150   -0.7119 H         1 <0>         0.1381
     59 H20        -0.4465   -0.9291   -2.6804 H         1 <0>         0.1371
     60 H21        -1.4349   -3.7333   -2.0074 H         1 <0>         0.1149
     61 H22         1.6790   -3.9691   -2.4739 H         1 <0>         0.0647
     62 H23         0.4827   -5.2448   -2.8051 H         1 <0>         0.0751
     63 H24         3.4891   -5.6407   -3.2734 H         1 <0>         0.0563
     64 H25         2.1676   -6.8009   -3.5493 H         1 <0>         0.0609
     65 H26         3.2552   -3.4155   -4.2593 H         1 <0>         0.3500
     66 H27         1.2736   -1.7663   -3.4545 H         1 <0>         0.3660
@<TRIPOS>BOND
     1    1    2 1
     2    1   42 1
     3    1   43 1
     4    1   44 1
     5    2    3 1
     6    2    4 1
     7    2   45 1
     8    3   46 1
     9    3   47 1
    10    3   48 1
    11    4    9 ar
    12    4    5 ar
    13    5    6 ar
    14    5   29 1
    15    6    7 ar
    16    6   22 1
    17    7    8 ar
    18    8    9 ar
    19    8   10 1
    20   10   11 1
    21   10   49 1
    22   11   15 2
    23   11   12 1
    24   12   13 2
    25   13   14 1
    26   13   16 1
    27   14   15 1
    28   16   21 ar
    29   16   17 ar
    30   17   18 ar
    31   17   50 1
    32   18   19 ar
    33   18   51 1
    34   19   20 ar
    35   19   52 1
    36   20   21 ar
    37   20   53 1
    38   21   54 1
    39   22   27 ar
    40   22   23 ar
    41   23   24 ar
    42   23   55 1
    43   24   25 ar
    44   24   56 1
    45   25   26 ar
    46   25   28 1
    47   26   27 ar
    48   26   57 1
    49   27   58 1
    50   29   30 2
    51   29   59 1
    52   30   31 1
    53   30   60 1
    54   31   32 1
    55   31   33 1
    56   31   41 1
    57   33   34 1
    58   33   61 1
    59   33   62 1
    60   34   35 1
    61   34   36 1
    62   34   40 1
    63   36   37 1
    64   36   63 1
    65   36   64 1
    66   37   38 2
    67   37   39 1
    68   40   65 1
    69   41   66 1
@<TRIPOS>MOLECULE
CHEMBL511255
   57    59     0     0     0
SMALL
USER_CHARGES

@<TRIPOS>ATOM
      1 C1         -0.0187    1.5258    0.0104 C.3       1 <0>        -0.1416
      2 C2          0.0021   -0.0041    0.0020 C.3       1 <0>        -0.0469
      3 C3          0.7421   -0.5109    1.2415 C.3       1 <0>        -0.1412
      4 C4         -1.4117   -0.5257    0.0127 C.ar      1 <0>         0.2401
      5 C5         -1.8760   -1.3354   -1.0280 C.ar      1 <0>        -0.1740
      6 C6         -3.2070   -1.7971   -0.9688 C.ar      1 <0>         0.2636
      7 N1         -3.9618   -1.4453    0.0686 N.ar      1 <0>        -0.5442
      8 C7         -3.4755   -0.6762    1.0294 C.ar      1 <0>         0.5641
      9 N2         -2.2276   -0.2285    1.0085 N.ar      1 <0>        -0.5435
     10 N3         -4.2942   -0.3325    2.0929 N.pl3     1 <0>        -0.5948
     11 C8         -5.6072   -0.7953    2.1391 C.2       1 <0>         0.3477
     12 C9         -6.2319   -1.6229    1.1787 C.2       1 <0>        -0.2844
     13 C10        -7.4952   -1.8480    1.5804 C.2       1 <0>         0.0445
     14 O1         -7.6870   -1.2023    2.7414 O.3       1 <0>        -0.0763
     15 N4         -6.4795   -0.5456    3.0824 N.2       1 <0>        -0.3625
     16 C11        -3.7549   -2.6574   -2.0423 C.ar      1 <0>        -0.0755
     17 C12        -3.3521   -2.4686   -3.3645 C.ar      1 <0>        -0.0468
     18 C13        -3.8652   -3.2724   -4.3607 C.ar      1 <0>        -0.1568
     19 C14        -4.7800   -4.2663   -4.0501 C.ar      1 <0>         0.1229
     20 C15        -5.1836   -4.4575   -2.7381 C.ar      1 <0>        -0.1624
     21 C16        -4.6711   -3.6631   -1.7339 C.ar      1 <0>        -0.0499
     22 F1         -5.2802   -5.0509   -5.0296 F         1 <0>        -0.1339
     23 C17        -0.9975   -1.6966   -2.1577 C.2       1 <0>        -0.1274
     24 C18        -0.8840   -2.9651   -2.5307 C.2       1 <0>        -0.1482
     25 C19         0.0131   -3.3339   -3.6841 C.3       1 <0>         0.1408
     26 H1         -0.5898   -3.7313   -4.5006 H         1 <0>         0.1115
     27 C20         1.0184   -4.3940   -3.2297 C.3       1 <0>        -0.1813
     28 C21         1.8465   -4.8590   -4.4292 C.3       1 <0>         0.1378
     29 H2          1.1795   -5.2031   -5.2197 H         1 <0>         0.0938
     30 C22         2.7645   -6.0057   -4.0014 C.3       1 <0>        -0.2195
     31 C23         3.4899   -6.5451   -5.2072 C.2       1 <0>         0.4905
     32 O2          3.2910   -6.0575   -6.3068 O.co2     1 <0>        -0.6809
     33 O3          4.2757   -7.4691   -5.0831 O.co2     1 <0>        -0.7127
     34 O4          2.6369   -3.7711   -4.9128 O.3       1 <0>        -0.5276
     35 O5          0.7151   -2.1726   -4.1318 O.3       1 <0>        -0.5366
     36 H3          1.0039    1.9031    0.0027 H         1 <0>         0.0667
     37 H4         -0.5459    1.8868   -0.8726 H         1 <0>         0.0550
     38 H5         -0.5289    1.8773    0.9072 H         1 <0>         0.0649
     39 H6          0.5123   -0.3556   -0.8948 H         1 <0>         0.0986
     40 H7          0.2319   -0.1594    2.1383 H         1 <0>         0.0648
     41 H8          0.7568   -1.6008    1.2356 H         1 <0>         0.0549
     42 H9          1.7647   -0.1336    1.2338 H         1 <0>         0.0668
     43 H10        -3.9530    0.2305    2.8053 H         1 <0>         0.4346
     44 H11        -5.7745   -2.0072    0.2790 H         1 <0>         0.1938
     45 H12        -8.2288   -2.4448    1.0588 H         1 <0>         0.2133
     46 H13        -2.6399   -1.6940   -3.6076 H         1 <0>         0.1469
     47 H14        -3.5540   -3.1270   -5.3846 H         1 <0>         0.1448
     48 H15        -5.8969   -5.2330   -2.5011 H         1 <0>         0.1406
     49 H16        -4.9826   -3.8161   -0.7111 H         1 <0>         0.1377
     50 H17        -0.4470   -0.9286   -2.6807 H         1 <0>         0.1385
     51 H18        -1.4344   -3.7331   -2.0077 H         1 <0>         0.1156
     52 H19         1.6795   -3.9679   -2.4750 H         1 <0>         0.0650
     53 H20         0.4835   -5.2440   -2.8060 H         1 <0>         0.0753
     54 H21         3.4898   -5.6389   -3.2751 H         1 <0>         0.0565
     55 H22         2.1687   -6.7994   -3.5507 H         1 <0>         0.0609
     56 H23         3.2550   -3.4137   -4.2607 H         1 <0>         0.3502
     57 H24         1.2732   -1.7652   -3.4553 H         1 <0>         0.3664
@<TRIPOS>BOND
     1    1    2 1
     2    1   36 1
     3    1   37 1
     4    1   38 1
     5    2    3 1
     6    2    4 1
     7    2   39 1
     8    3   40 1
     9    3   41 1
    10    3   42 1
    11    4    9 ar
    12    4    5 ar
    13    5    6 ar
    14    5   23 1
    15    6    7 ar
    16    6   16 1
    17    7    8 ar
    18    8    9 ar
    19    8   10 1
    20   10   11 1
    21   10   43 1
    22   11   15 2
    23   11   12 1
    24   12   13 2
    25   12   44 1
    26   13   14 1
    27   13   45 1
    28   14   15 1
    29   16   21 ar
    30   16   17 ar
    31   17   18 ar
    32   17   46 1
    33   18   19 ar
    34   18   47 1
    35   19   20 ar
    36   19   22 1
    37   20   21 ar
    38   20   48 1
    39   21   49 1
    40   23   24 2
    41   23   50 1
    42   24   25 1
    43   24   51 1
    44   25   26 1
    45   25   27 1
    46   25   35 1
    47   27   28 1
    48   27   52 1
    49   27   53 1
    50   28   29 1
    51   28   30 1
    52   28   34 1
    53   30   31 1
    54   30   54 1
    55   30   55 1
    56   31   32 2
    57   31   33 1
    58   34   56 1
    59   35   57 1
@<TRIPOS>MOLECULE
CHEMBL340848
   61    64     0     0     0
SMALL
USER_CHARGES

@<TRIPOS>ATOM
      1 C1          0.4879    1.6283    0.1682 C.3       1 <0>        -0.1430
      2 C2          0.1742    0.1349    0.0565 C.3       1 <0>        -0.0149
      3 C3         -1.3421   -0.0668    0.0262 C.3       1 <0>        -0.1420
      4 C4          0.7792   -0.4120   -1.2107 C.2       1 <0>         0.0880
      5 C5          1.7248   -1.4349   -1.2858 C.2       1 <0>        -0.2082
      6 C6          2.0175   -1.6386   -2.6048 C.2       1 <0>         0.1250
      7 N1          1.2677   -0.7592   -3.3273 N.pl3     1 <0>        -0.3588
      8 N2          0.5011   -0.0107   -2.4251 N.2       1 <0>        -0.2745
      9 C7          1.2609   -0.6246   -4.7861 C.3       1 <0>         0.1738
     10 C8          2.2057    0.4766   -5.1933 C.ar      1 <0>        -0.1174
     11 C9          1.7789    1.7914   -5.1860 C.ar      1 <0>        -0.0880
     12 C10         2.6456    2.8015   -5.5596 C.ar      1 <0>        -0.1228
     13 C11         3.9392    2.4968   -5.9400 C.ar      1 <0>        -0.1080
     14 C12         4.3663    1.1821   -5.9464 C.ar      1 <0>        -0.1225
     15 C13         3.5009    0.1724   -5.5687 C.ar      1 <0>        -0.0968
     16 C14         2.9719   -2.6302   -3.1482 C.ar      1 <0>        -0.0396
     17 C15         4.2908   -2.6541   -2.6940 C.ar      1 <0>        -0.0558
     18 C16         5.1765   -3.5808   -3.2034 C.ar      1 <0>        -0.1465
     19 C17         4.7582   -4.4870   -4.1646 C.ar      1 <0>         0.1093
     20 C18         3.4493   -4.4674   -4.6191 C.ar      1 <0>        -0.1506
     21 C19         2.5544   -3.5482   -4.1122 C.ar      1 <0>        -0.0791
     22 F1          5.6296   -5.3924   -4.6607 F         1 <0>        -0.1360
     23 C20         2.3184   -2.1822   -0.1195 C.3       1 <0>        -0.0432
     24 C21         1.4591   -3.4096    0.1904 C.3       1 <0>        -0.1070
     25 C22         2.0617   -4.1682    1.3746 C.3       1 <0>         0.1096
     26 H1          2.1735   -3.4913    2.2215 H         1 <0>         0.0862
     27 C23         1.1379   -5.3254    1.7637 C.3       1 <0>        -0.1534
     28 C24         1.7644   -6.1077    2.9225 C.3       1 <0>         0.1044
     29 H2          1.1155   -6.9403    3.1940 H         1 <0>         0.0789
     30 C25         3.1305   -6.6448    2.4770 C.3       1 <0>        -0.2053
     31 C26         3.9339   -5.4920    1.9157 C.2       1 <0>         0.4961
     32 O1          5.0716   -5.2957    2.2719 O.2       1 <0>        -0.4538
     33 O2          3.3437   -4.6890    1.0062 O.3       1 <0>        -0.3654
     34 O3          1.9310   -5.2437    4.0485 O.3       1 <0>        -0.5632
     35 H3          1.5682    1.7720    0.1899 H         1 <0>         0.0544
     36 H4          0.0687    2.1528   -0.6904 H         1 <0>         0.0601
     37 H5          0.0503    2.0239    1.0848 H         1 <0>         0.0609
     38 H6          0.5934   -0.3896    0.9152 H         1 <0>         0.0876
     39 H7         -1.7613    0.4578   -0.8325 H         1 <0>         0.0603
     40 H8         -1.5656   -1.1306   -0.0534 H         1 <0>         0.0542
     41 H9         -1.7797    0.3289    0.9427 H         1 <0>         0.0608
     42 H10         1.5801   -1.5632   -5.2391 H         1 <0>         0.1006
     43 H11         0.2533   -0.3822   -5.1239 H         1 <0>         0.1031
     44 H12         0.7683    2.0294   -4.8888 H         1 <0>         0.1248
     45 H13         2.3119    3.8286   -5.5545 H         1 <0>         0.1244
     46 H14         4.6161    3.2859   -6.2325 H         1 <0>         0.1238
     47 H15         5.3768    0.9440   -6.2439 H         1 <0>         0.1242
     48 H16         3.8357   -0.8544   -5.5702 H         1 <0>         0.1199
     49 H17         4.6179   -1.9480   -1.9451 H         1 <0>         0.1375
     50 H18         6.1978   -3.5999   -2.8527 H         1 <0>         0.1412
     51 H19         3.1283   -5.1756   -5.3686 H         1 <0>         0.1400
     52 H20         1.5333   -3.5366   -4.4638 H         1 <0>         0.1321
     53 H21         3.3304   -2.5008   -0.3692 H         1 <0>         0.0775
     54 H22         2.3478   -1.5296    0.7531 H         1 <0>         0.0724
     55 H23         0.4470   -3.0909    0.4401 H         1 <0>         0.0868
     56 H24         1.4296   -4.0621   -0.6821 H         1 <0>         0.0745
     57 H25         0.1703   -4.9302    2.0728 H         1 <0>         0.0981
     58 H26         1.0043   -5.9875    0.9082 H         1 <0>         0.0948
     59 H27         3.6527   -7.0748    3.3317 H         1 <0>         0.1072
     60 H28         2.9934   -7.4057    1.7087 H         1 <0>         0.1175
     61 H29         2.3236   -5.6745    4.8201 H         1 <0>         0.3861
@<TRIPOS>BOND
     1    1    2 1
     2    1   35 1
     3    1   36 1
     4    1   37 1
     5    2    3 1
     6    2    4 1
     7    2   38 1
     8    3   39 1
     9    3   40 1
    10    3   41 1
    11    4    8 2
    12    4    5 1
    13    5    6 2
    14    5   23 1
    15    6    7 1
    16    6   16 1
    17    7    8 1
    18    7    9 1
    19    9   10 1
    20    9   42 1
    21    9   43 1
    22   10   15 ar
    23   10   11 ar
    24   11   12 ar
    25   11   44 1
    26   12   13 ar
    27   12   45 1
    28   13   14 ar
    29   13   46 1
    30   14   15 ar
    31   14   47 1
    32   15   48 1
    33   16   21 ar
    34   16   17 ar
    35   17   18 ar
    36   17   49 1
    37   18   19 ar
    38   18   50 1
    39   19   20 ar
    40   19   22 1
    41   20   21 ar
    42   20   51 1
    43   21   52 1
    44   23   24 1
    45   23   53 1
    46   23   54 1
    47   24   25 1
    48   24   55 1
    49   24   56 1
    50   25   26 1
    51   25   33 1
    52   25   27 1
    53   27   28 1
    54   27   57 1
    55   27   58 1
    56   28   29 1
    57   28   30 1
    58   28   34 1
    59   30   31 1
    60   30   59 1
    61   30   60 1
    62   31   32 2
    63   31   33 1
    64   34   61 1
@<TRIPOS>MOLECULE
CHEMBL430951
   44    46     0     0     0
SMALL
USER_CHARGES

@<TRIPOS>ATOM
      1 C1         -0.0167    1.3782    0.0096 C.ar      1 <0>        -0.0621
      2 C2          1.1703    2.0860    0.0021 C.ar      1 <0>        -0.1562
      3 C3          2.3786    1.4101   -0.0131 C.ar      1 <0>         0.1129
      4 C4          2.3962    0.0256   -0.0207 C.ar      1 <0>        -0.1572
      5 C5          1.2079   -0.6800   -0.0132 C.ar      1 <0>        -0.0630
      6 C6          0.0021   -0.0041    0.0020 C.ar      1 <0>        -0.1108
      7 C7         -1.2930   -0.7747    0.0103 C.3       1 <0>         0.0986
      8 O1         -1.7152   -1.0110   -1.3343 O.3       1 <0>        -0.2903
      9 C8         -2.8741   -1.6986   -1.5049 C.ar      1 <0>         0.1687
     10 C9         -3.5936   -2.1322   -0.4035 C.ar      1 <0>        -0.1985
     11 C10        -4.7737   -2.8325   -0.5776 C.ar      1 <0>         0.0164
     12 C11        -5.2440   -3.1049   -1.8517 C.ar      1 <0>        -0.1370
     13 C12        -4.5380   -2.6793   -2.9591 C.ar      1 <0>         0.0164
     14 C13        -3.3485   -1.9667   -2.7944 C.ar      1 <0>        -0.0760
     15 C14        -2.5918   -1.5027   -3.9751 C.2       1 <0>        -0.0836
     16 C15        -2.3111   -2.3487   -4.9572 C.2       1 <0>        -0.1454
     17 C16        -1.5390   -1.8754   -6.1618 C.3       1 <0>         0.1456
     18 C17        -0.3037   -2.7586   -6.3565 C.3       1 <0>        -0.1476
     19 C18         0.5006   -2.2491   -7.5567 C.3       1 <0>         0.1043
     20 H1          1.3880   -2.8678   -7.6907 H         1 <0>         0.0815
     21 C19         0.9213   -0.7979   -7.2919 C.3       1 <0>        -0.2045
     22 C20        -0.3115   -0.0085   -6.9092 C.2       1 <0>         0.4977
     23 O2         -0.5610    1.0493   -7.4371 O.2       1 <0>        -0.4509
     24 O3         -1.1241   -0.5196   -5.9612 O.3       1 <0>        -0.3672
     25 O4         -0.3068   -2.3088   -8.7342 O.3       1 <0>        -0.5636
     26 Cl1        -5.1315   -3.0238   -4.5537 Cl        1 <0>        -0.0366
     27 Cl2        -5.6696   -3.3731    0.8076 Cl        1 <0>        -0.0482
     28 F1          3.5396    2.1009   -0.0209 F         1 <0>        -0.1356
     29 H2         -0.9592    1.9052    0.0260 H         1 <0>         0.1365
     30 H3          1.1554    3.1659    0.0077 H         1 <0>         0.1404
     31 H4          3.3381   -0.5027   -0.0329 H         1 <0>         0.1399
     32 H5          1.2213   -1.7599   -0.0195 H         1 <0>         0.1359
     33 H6         -1.1453   -1.7280    0.5176 H         1 <0>         0.0788
     34 H7         -2.0553   -0.1984    0.5345 H         1 <0>         0.0789
     35 H8         -3.2324   -1.9235    0.5927 H         1 <0>         0.1475
     36 H9         -6.1661   -3.6525   -1.9792 H         1 <0>         0.1489
     37 H10        -2.2670   -0.4747   -4.0385 H         1 <0>         0.1394
     38 H11        -2.6359   -3.3767   -4.8938 H         1 <0>         0.1356
     39 H12        -2.1727   -1.9349   -7.0466 H         1 <0>         0.0974
     40 H13         0.3159   -2.7198   -5.4606 H         1 <0>         0.0980
     41 H14        -0.6167   -3.7867   -6.5384 H         1 <0>         0.1005
     42 H15         1.6445   -0.7678   -6.4770 H         1 <0>         0.1189
     43 H16         1.3642   -0.3735   -8.1929 H         1 <0>         0.1086
     44 H17         0.1407   -2.0003   -9.5340 H         1 <0>         0.3870
@<TRIPOS>BOND
     1    1    6 ar
     2    1    2 ar
     3    1   29 1
     4    2    3 ar
     5    2   30 1
     6    3    4 ar
     7    3   28 1
     8    4    5 ar
     9    4   31 1
    10    5    6 ar
    11    5   32 1
    12    6    7 1
    13    7    8 1
    14    7   33 1
    15    7   34 1
    16    8    9 1
    17    9   14 ar
    18    9   10 ar
    19   10   11 ar
    20   10   35 1
    21   11   12 ar
    22   11   27 1
    23   12   13 ar
    24   12   36 1
    25   13   14 ar
    26   13   26 1
    27   14   15 1
    28   15   16 2
    29   15   37 1
    30   16   17 1
    31   16   38 1
    32   17   24 1
    33   17   18 1
    34   17   39 1
    35   18   19 1
    36   18   40 1
    37   18   41 1
    38   19   20 1
    39   19   21 1
    40   19   25 1
    41   21   22 1
    42   21   42 1
    43   21   43 1
    44   22   23 2
    45   22   24 1
    46   25   44 1
@<TRIPOS>MOLECULE
CHEMBL430951__1
   44    46     0     0     0
SMALL
USER_CHARGES

@<TRIPOS>ATOM
      1 C1         -0.0167    1.3782    0.0096 C.ar      1 <0>        -0.0630
      2 C2          1.1703    2.0860    0.0021 C.ar      1 <0>        -0.1568
      3 C3          2.3786    1.4101   -0.0131 C.ar      1 <0>         0.1135
      4 C4          2.3962    0.0256   -0.0207 C.ar      1 <0>        -0.1565
      5 C5          1.2079   -0.6800   -0.0132 C.ar      1 <0>        -0.0625
      6 C6          0.0021   -0.0041    0.0020 C.ar      1 <0>        -0.1119
      7 C7         -1.2930   -0.7747    0.0103 C.3       1 <0>         0.0988
      8 O1         -1.7152   -1.0110   -1.3343 O.3       1 <0>        -0.2925
      9 C8         -2.8741   -1.6986   -1.5049 C.ar      1 <0>         0.1711
     10 C9         -3.5936   -2.1322   -0.4035 C.ar      1 <0>        -0.1997
     11 C10        -4.7737   -2.8325   -0.5776 C.ar      1 <0>         0.0198
     12 C11        -5.2440   -3.1049   -1.8517 C.ar      1 <0>        -0.1381
     13 C12        -4.5380   -2.6793   -2.9591 C.ar      1 <0>         0.0194
     14 C13        -3.3485   -1.9667   -2.7944 C.ar      1 <0>        -0.0812
     15 C14        -2.5918   -1.5027   -3.9751 C.2       1 <0>        -0.0782
     16 C15        -2.3111   -2.3487   -4.9572 C.2       1 <0>        -0.1320
     17 C16        -1.5390   -1.8754   -6.1618 C.3       1 <0>         0.1454
     18 C17        -0.2453   -2.6839   -6.2897 C.3       1 <0>        -0.1515
     19 C18         0.5168   -2.2285   -7.5383 C.3       1 <0>         0.1094
     20 H1          0.7628   -1.1703   -7.4502 H         1 <0>         0.0684
     21 C19        -0.3715   -2.4489   -8.7693 C.3       1 <0>        -0.2048
     22 C20        -1.7123   -1.7975   -8.5100 C.2       1 <0>         0.4917
     23 O2         -2.2147   -1.0626   -9.3270 O.2       1 <0>        -0.4466
     24 O3         -2.3309   -2.0608   -7.3404 O.3       1 <0>        -0.3612
     25 O4          1.7188   -2.9901   -7.6698 O.3       1 <0>        -0.5546
     26 Cl1        -5.1315   -3.0238   -4.5537 Cl        1 <0>        -0.0292
     27 Cl2        -5.6696   -3.3731    0.8076 Cl        1 <0>        -0.0465
     28 F1          3.5396    2.1009   -0.0209 F         1 <0>        -0.1353
     29 H2         -0.9592    1.9052    0.0260 H         1 <0>         0.1364
     30 H3          1.1554    3.1659    0.0077 H         1 <0>         0.1404
     31 H4          3.3381   -0.5027   -0.0329 H         1 <0>         0.1405
     32 H5          1.2213   -1.7599   -0.0195 H         1 <0>         0.1364
     33 H6         -1.1453   -1.7280    0.5176 H         1 <0>         0.0795
     34 H7         -2.0553   -0.1984    0.5345 H         1 <0>         0.0795
     35 H8         -3.2324   -1.9235    0.5927 H         1 <0>         0.1482
     36 H9         -6.1661   -3.6525   -1.9792 H         1 <0>         0.1498
     37 H10        -2.2670   -0.4747   -4.0385 H         1 <0>         0.1323
     38 H11        -2.6359   -3.3767   -4.8938 H         1 <0>         0.1288
     39 H12        -1.2985   -0.8184   -6.0476 H         1 <0>         0.0849
     40 H13         0.3734   -2.5223   -5.4069 H         1 <0>         0.1011
     41 H14        -0.4857   -3.7435   -6.3766 H         1 <0>         0.0935
     42 H15         0.0941   -1.9955   -9.6444 H         1 <0>         0.1082
     43 H16        -0.5083   -3.5171   -8.9373 H         1 <0>         0.1188
     44 H17         2.2518   -2.7536   -8.4412 H         1 <0>         0.3859
@<TRIPOS>BOND
     1    1    6 ar
     2    1    2 ar
     3    1   29 1
     4    2    3 ar
     5    2   30 1
     6    3    4 ar
     7    3   28 1
     8    4    5 ar
     9    4   31 1
    10    5    6 ar
    11    5   32 1
    12    6    7 1
    13    7    8 1
    14    7   33 1
    15    7   34 1
    16    8    9 1
    17    9   14 ar
    18    9   10 ar
    19   10   11 ar
    20   10   35 1
    21   11   12 ar
    22   11   27 1
    23   12   13 ar
    24   12   36 1
    25   13   14 ar
    26   13   26 1
    27   14   15 1
    28   15   16 2
    29   15   37 1
    30   16   17 1
    31   16   38 1
    32   17   24 1
    33   17   18 1
    34   17   39 1
    35   18   19 1
    36   18   40 1
    37   18   41 1
    38   19   20 1
    39   19   21 1
    40   19   25 1
    41   21   22 1
    42   21   42 1
    43   21   43 1
    44   22   23 2
    45   22   24 1
    46   25   44 1
@<TRIPOS>MOLECULE
CHEMBL320943
   87    91     0     0     0
SMALL
USER_CHARGES

@<TRIPOS>ATOM
      1 C1         -0.1181    1.5245    0.0412 C.3       1 <0>        -0.1541
      2 C2         -0.0971   -0.0053    0.0326 C.3       1 <0>        -0.1101
      3 C3          0.6755   -0.5116    1.2523 C.3       1 <0>        -0.0832
      4 H1          0.2423   -0.0880    2.1584 H         1 <0>         0.1065
      5 C4          2.1409   -0.0860    1.1405 C.3       1 <0>        -0.1441
      6 C5          0.5922   -2.0152    1.3111 C.2       1 <0>         0.4620
      7 O1         -0.0221   -2.6197    0.4643 O.2       1 <0>        -0.5061
      8 O2          1.2004   -2.6827    2.3041 O.3       1 <0>        -0.3348
      9 C6          1.0800   -4.1066    2.2976 C.3       1 <0>         0.1069
     10 H2          0.1338   -4.3964    1.8405 H         1 <0>         0.0813
     11 C7          2.2503   -4.7271    1.5160 C.3       1 <0>        -0.1348
     12 C8          3.5890   -4.4047    2.1710 C.3       1 <0>        -0.0652
     13 H3          3.7554   -3.3286    2.1225 H         1 <0>         0.0792
     14 C9          3.6186   -4.8465    3.6425 C.3       1 <0>        -0.0776
     15 H4          3.4784   -5.9256    3.7057 H         1 <0>         0.0816
     16 C10         4.9672   -4.4644    4.2540 C.3       1 <0>        -0.1134
     17 C11         6.0904   -5.1699    3.4911 C.3       1 <0>        -0.1160
     18 C12         6.0586   -4.7421    2.0226 C.3       1 <0>        -0.0700
     19 H5          6.8572   -5.2474    1.4795 H         1 <0>         0.0706
     20 C13         4.7205   -5.1141    1.4260 C.3       1 <0>        -0.0486
     21 C14         4.6978   -4.7034   -0.0477 C.3       1 <0>        -0.1103
     22 C15         4.8816   -3.1885   -0.1578 C.3       1 <0>        -0.1523
     23 C16         6.2227   -2.7909    0.4619 C.3       1 <0>         0.1061
     24 H6          7.0313   -3.2937   -0.0686 H         1 <0>         0.0489
     25 C17         6.2567   -3.2277    1.9286 C.3       1 <0>        -0.1101
     26 O3          6.3937   -1.3759    0.3600 O.3       1 <0>        -0.5675
     27 C18         4.5343   -6.6286    1.5379 C.3       1 <0>        -0.1508
     28 C19         2.4769   -4.1394    4.3480 C.3       1 <0>        -0.0779
     29 H7          2.5581   -3.0608    4.2135 H         1 <0>         0.0813
     30 C20         1.1513   -4.6367    3.7161 C.3       1 <0>        -0.0552
     31 C21         0.0803   -4.1432    4.6832 C.3       1 <0>        -0.0748
     32 C22         0.7776   -4.0718    6.0647 C.3       1 <0>        -0.1172
     33 C23         2.2933   -4.4803    5.8308 C.3       1 <0>        -0.1153
     34 C24        -1.0878   -5.1301    4.7293 C.3       1 <0>        -0.1139
     35 C25        -2.2039   -4.5589    5.6063 C.3       1 <0>        -0.1156
     36 C26        -3.3720   -5.5459    5.6523 C.3       1 <0>         0.1097
     37 H8         -3.6932   -5.7773    4.6368 H         1 <0>         0.0839
     38 C27        -4.5366   -4.9237    6.4273 C.3       1 <0>        -0.1539
     39 C28        -5.6889   -5.9302    6.5071 C.3       1 <0>         0.1038
     40 H9         -6.5153   -5.4954    7.0693 H         1 <0>         0.0794
     41 C29        -5.1934   -7.1960    7.2180 C.3       1 <0>        -0.2048
     42 C30        -3.9257   -7.6593    6.5340 C.2       1 <0>         0.4958
     43 O4         -3.7857   -8.8117    6.1992 O.2       1 <0>        -0.4536
     44 O5         -2.9559   -6.7489    6.3081 O.3       1 <0>        -0.3664
     45 O6         -6.1285   -6.2600    5.1880 O.3       1 <0>        -0.5636
     46 C31         1.1643   -6.1666    3.6964 C.3       1 <0>        -0.1504
     47 H10         0.9038    1.9022    0.0064 H         1 <0>         0.0598
     48 H11        -0.6685    1.8852   -0.8277 H         1 <0>         0.0602
     49 H12        -0.6046    1.8761    0.9511 H         1 <0>         0.0563
     50 H13        -1.1190   -0.3829    0.0674 H         1 <0>         0.0712
     51 H14         0.3894   -0.3569   -0.8773 H         1 <0>         0.0701
     52 H15         2.5742   -0.5096    0.2344 H         1 <0>         0.0595
     53 H16         2.2012    1.0015    1.0980 H         1 <0>         0.0737
     54 H17         2.6913   -0.4467    2.0094 H         1 <0>         0.0692
     55 H18         2.1219   -5.8089    1.4807 H         1 <0>         0.0836
     56 H19         2.2474   -4.3353    0.4989 H         1 <0>         0.0671
     57 H20         5.1042   -3.3852    4.1866 H         1 <0>         0.0641
     58 H21         4.9913   -4.7693    5.3003 H         1 <0>         0.0621
     59 H22         7.0518   -4.8990    3.9275 H         1 <0>         0.0613
     60 H23         5.9526   -6.2491    3.5579 H         1 <0>         0.0676
     61 H24         5.5063   -5.2069   -0.5777 H         1 <0>         0.0622
     62 H25         3.7423   -4.9865   -0.4891 H         1 <0>         0.0669
     63 H26         4.8655   -2.8959   -1.2077 H         1 <0>         0.0602
     64 H27         4.0730   -2.6850    0.3721 H         1 <0>         0.0730
     65 H28         5.4574   -2.7224    2.4706 H         1 <0>         0.0770
     66 H29         7.2184   -2.9593    2.3659 H         1 <0>         0.0660
     67 H30         6.3893   -1.0436   -0.5481 H         1 <0>         0.3770
     68 H31         3.5774   -6.9104    1.0985 H         1 <0>         0.0556
     69 H32         5.3409   -7.1340    1.0068 H         1 <0>         0.0535
     70 H33         4.5520   -6.9202    2.5880 H         1 <0>         0.0648
     71 H34        -0.2706   -3.1550    4.3858 H         1 <0>         0.0730
     72 H35         0.7072   -3.0614    6.4676 H         1 <0>         0.0637
     73 H36         0.3187   -4.7821    6.7525 H         1 <0>         0.0649
     74 H37         2.4718   -5.5409    6.0077 H         1 <0>         0.0693
     75 H38         2.9490   -3.8691    6.4511 H         1 <0>         0.0640
     76 H39        -1.4661   -5.2928    3.7200 H         1 <0>         0.0606
     77 H40        -0.7468   -6.0776    5.1466 H         1 <0>         0.0784
     78 H41        -1.8256   -4.3962    6.6155 H         1 <0>         0.0782
     79 H42        -2.5449   -3.6114    5.1889 H         1 <0>         0.0840
     80 H43        -4.2075   -4.6671    7.4343 H         1 <0>         0.0957
     81 H44        -4.8750   -4.0233    5.9145 H         1 <0>         0.0974
     82 H45        -4.9856   -6.9723    8.2643 H         1 <0>         0.1182
     83 H46        -5.9524   -7.9755    7.1520 H         1 <0>         0.1074
     84 H47        -6.8580   -6.8943    5.1636 H         1 <0>         0.3863
     85 H48         1.9968   -6.5150    3.0852 H         1 <0>         0.0669
     86 H49         1.2779   -6.5421    4.7133 H         1 <0>         0.0676
     87 H50         0.2273   -6.5325    3.2765 H         1 <0>         0.0574
@<TRIPOS>BOND
     1    1    2 1
     2    1   47 1
     3    1   48 1
     4    1   49 1
     5    2    3 1
     6    2   50 1
     7    2   51 1
     8    3    4 1
     9    3    5 1
    10    3    6 1
    11    5   52 1
    12    5   53 1
    13    5   54 1
    14    6    7 2
    15    6    8 1
    16    8    9 1
    17    9   10 1
    18    9   30 1
    19    9   11 1
    20   11   12 1
    21   11   55 1
    22   11   56 1
    23   12   13 1
    24   12   20 1
    25   12   14 1
    26   14   15 1
    27   14   16 1
    28   14   28 1
    29   16   17 1
    30   16   57 1
    31   16   58 1
    32   17   18 1
    33   17   59 1
    34   17   60 1
    35   18   19 1
    36   18   25 1
    37   18   20 1
    38   20   21 1
    39   20   27 1
    40   21   22 1
    41   21   61 1
    42   21   62 1
    43   22   23 1
    44   22   63 1
    45   22   64 1
    46   23   24 1
    47   23   25 1
    48   23   26 1
    49   25   65 1
    50   25   66 1
    51   26   67 1
    52   27   68 1
    53   27   69 1
    54   27   70 1
    55   28   29 1
    56   28   33 1
    57   28   30 1
    58   30   31 1
    59   30   46 1
    60   31   32 1
    61   31   34 1
    62   31   71 1
    63   32   33 1
    64   32   72 1
    65   32   73 1
    66   33   74 1
    67   33   75 1
    68   34   35 1
    69   34   76 1
    70   34   77 1
    71   35   36 1
    72   35   78 1
    73   35   79 1
    74   36   37 1
    75   36   44 1
    76   36   38 1
    77   38   39 1
    78   38   80 1
    79   38   81 1
    80   39   40 1
    81   39   41 1
    82   39   45 1
    83   41   42 1
    84   41   82 1
    85   41   83 1
    86   42   43 2
    87   42   44 1
    88   45   84 1
    89   46   85 1
    90   46   86 1
    91   46   87 1
@<TRIPOS>MOLECULE
CHEMBL320943__1
   87    91     0     0     0
SMALL
USER_CHARGES

@<TRIPOS>ATOM
      1 C1          0.0003    1.5260    0.0049 C.3       1 <0>        -0.1469
      2 C2          0.0210   -0.0038   -0.0035 C.3       1 <0>        -0.1050
      3 C3          0.7547   -0.5108    1.2397 C.3       1 <0>        -0.0777
      4 H1          0.2934   -0.0872    2.1318 H         1 <0>         0.1016
      5 C4          2.2231   -0.0857    1.1741 C.3       1 <0>        -0.1438
      6 C5          0.6690   -2.0143    1.2954 C.2       1 <0>         0.4665
      7 O1          0.0813   -2.6184    0.4296 O.2       1 <0>        -0.5054
      8 O2          1.2455   -2.6824    2.3069 O.3       1 <0>        -0.3331
      9 C6          1.1248   -4.1062    2.2962 C.3       1 <0>         0.1084
     10 H2          0.1933   -4.3955    1.8096 H         1 <0>         0.0806
     11 C7          2.3188   -4.7269    1.5516 C.3       1 <0>        -0.1354
     12 C8          3.6364   -4.4053    2.2484 C.3       1 <0>        -0.0651
     13 H3          3.8047   -3.3292    2.2054 H         1 <0>         0.0797
     14 C9          3.6196   -4.8475    3.7199 C.3       1 <0>        -0.0770
     15 H4          3.4771   -5.9265    3.7784 H         1 <0>         0.0804
     16 C10         4.9486   -4.4661    4.3736 C.3       1 <0>        -0.1135
     17 C11         6.0948   -5.1719    3.6461 C.3       1 <0>        -0.1157
     18 C12         6.1093   -4.7436    2.1774 C.3       1 <0>        -0.0699
     19 H5          6.9243   -5.2492    1.6595 H         1 <0>         0.0703
     20 C13         4.7904   -5.1149    1.5391 C.3       1 <0>        -0.0487
     21 C14         4.8142   -4.7039    0.0654 C.3       1 <0>        -0.1101
     22 C15         5.0019   -3.1890   -0.0384 C.3       1 <0>        -0.1527
     23 C16         6.3231   -2.7922    0.6232 C.3       1 <0>         0.1063
     24 H6          7.1478   -3.2952    0.1182 H         1 <0>         0.0486
     25 C17         6.3109   -3.2294    2.0901 C.3       1 <0>        -0.1101
     26 O3          6.4978   -1.3771    0.5270 O.3       1 <0>        -0.5674
     27 C18         4.6002   -6.6294    1.6446 C.3       1 <0>        -0.1503
     28 C19         2.4566   -4.1401    4.3894 C.3       1 <0>        -0.0778
     29 H7          2.5424   -3.0615    4.2578 H         1 <0>         0.0826
     30 C20         1.1513   -4.6367    3.7161 C.3       1 <0>        -0.0561
     31 C21         0.0507   -4.1430    4.6493 C.3       1 <0>        -0.0760
     32 C22         0.7043   -4.0723    6.0520 C.3       1 <0>        -0.1176
     33 C23         2.2265   -4.4813    5.8657 C.3       1 <0>        -0.1156
     34 C24        -0.4280   -2.7556    4.2169 C.3       1 <0>        -0.1070
     35 C25        -1.6137   -2.3315    5.0860 C.3       1 <0>        -0.1186
     36 C26        -2.0924   -0.9441    4.6536 C.3       1 <0>         0.1104
     37 H8         -1.2574   -0.2443    4.6867 H         1 <0>         0.0837
     38 C27        -3.1972   -0.4668    5.6000 C.3       1 <0>        -0.1537
     39 C28        -3.7028    0.9042    5.1397 C.3       1 <0>         0.1045
     40 H9         -4.4985    1.2418    5.8037 H         1 <0>         0.0783
     41 C29        -4.2450    0.7786    3.7102 C.3       1 <0>        -0.2056
     42 C30        -3.1848    0.1179    2.8566 C.2       1 <0>         0.4930
     43 O4         -2.8633    0.5876    1.7908 O.2       1 <0>        -0.4464
     44 O5         -2.6079   -1.0106    3.3193 O.3       1 <0>        -0.3660
     45 O6         -2.6269    1.8445    5.1652 O.3       1 <0>        -0.5629
     46 C31         1.1643   -6.1666    3.6964 C.3       1 <0>        -0.1494
     47 H10         1.0230    1.9032    0.0023 H         1 <0>         0.0540
     48 H11        -0.5224    1.8872   -0.8808 H         1 <0>         0.0569
     49 H12        -0.5143    1.8775    0.8991 H         1 <0>         0.0566
     50 H13        -1.0016   -0.3811   -0.0009 H         1 <0>         0.0760
     51 H14         0.5357   -0.3554   -0.8977 H         1 <0>         0.0639
     52 H15         2.6844   -0.5093    0.2819 H         1 <0>         0.0585
     53 H16         2.2851    1.0017    1.1338 H         1 <0>         0.0723
     54 H17         2.7458   -0.4469    2.0597 H         1 <0>         0.0673
     55 H18         2.1911   -5.8087    1.5119 H         1 <0>         0.0821
     56 H19         2.3480   -4.3349    0.5349 H         1 <0>         0.0673
     57 H20         5.0880   -3.3869    4.3107 H         1 <0>         0.0643
     58 H21         4.9397   -4.7712    5.4200 H         1 <0>         0.0617
     59 H22         7.0421   -4.9015    4.1125 H         1 <0>         0.0611
     60 H23         5.9546   -6.2511    3.7083 H         1 <0>         0.0672
     61 H24         5.6387   -5.2076   -0.4390 H         1 <0>         0.0618
     62 H25         3.8728   -4.9865   -0.4059 H         1 <0>         0.0669
     63 H26         5.0189   -2.8961   -1.0882 H         1 <0>         0.0602
     64 H27         4.1773   -2.6853    0.4660 H         1 <0>         0.0737
     65 H28         5.4951   -2.7238    2.6069 H         1 <0>         0.0772
     66 H29         7.2585   -2.9614    2.5574 H         1 <0>         0.0657
     67 H30         6.5220   -1.0446   -0.3807 H         1 <0>         0.3771
     68 H31         3.6575   -6.9107    1.1754 H         1 <0>         0.0553
     69 H32         5.4229   -7.1350    1.1389 H         1 <0>         0.0532
     70 H33         4.5848   -6.9213    2.6946 H         1 <0>         0.0644
     71 H34        -0.7824   -4.8458    4.6558 H         1 <0>         0.0722
     72 H35         0.6217   -3.0620    6.4527 H         1 <0>         0.0677
     73 H36         0.2238   -4.7826    6.7248 H         1 <0>         0.0597
     74 H37         2.3988   -5.5421    6.0478 H         1 <0>         0.0687
     75 H38         2.8626   -3.8706    6.5064 H         1 <0>         0.0643
     76 H39         0.3839   -2.0380    4.3348 H         1 <0>         0.0730
     77 H40        -0.7364   -2.7870    3.1719 H         1 <0>         0.0658
     78 H41        -2.4256   -3.0491    4.9681 H         1 <0>         0.0734
     79 H42        -1.3053   -2.3001    6.1310 H         1 <0>         0.0866
     80 H43        -4.0205   -1.1810    5.5875 H         1 <0>         0.0946
     81 H44        -2.7999   -0.3869    6.6118 H         1 <0>         0.0972
     82 H45        -5.1481    0.1682    3.7122 H         1 <0>         0.1165
     83 H46        -4.4709    1.7688    3.3145 H         1 <0>         0.1070
     84 H47        -2.8767    2.7356    4.8849 H         1 <0>         0.3858
     85 H48         1.9968   -6.5150    3.0852 H         1 <0>         0.0695
     86 H49         1.2779   -6.5421    4.7133 H         1 <0>         0.0658
     87 H50         0.2273   -6.5325    3.2765 H         1 <0>         0.0534
@<TRIPOS>BOND
     1    1    2 1
     2    1   47 1
     3    1   48 1
     4    1   49 1
     5    2    3 1
     6    2   50 1
     7    2   51 1
     8    3    4 1
     9    3    5 1
    10    3    6 1
    11    5   52 1
    12    5   53 1
    13    5   54 1
    14    6    7 2
    15    6    8 1
    16    8    9 1
    17    9   10 1
    18    9   30 1
    19    9   11 1
    20   11   12 1
    21   11   55 1
    22   11   56 1
    23   12   13 1
    24   12   20 1
    25   12   14 1
    26   14   15 1
    27   14   16 1
    28   14   28 1
    29   16   17 1
    30   16   57 1
    31   16   58 1
    32   17   18 1
    33   17   59 1
    34   17   60 1
    35   18   19 1
    36   18   25 1
    37   18   20 1
    38   20   21 1
    39   20   27 1
    40   21   22 1
    41   21   61 1
    42   21   62 1
    43   22   23 1
    44   22   63 1
    45   22   64 1
    46   23   24 1
    47   23   25 1
    48   23   26 1
    49   25   65 1
    50   25   66 1
    51   26   67 1
    52   27   68 1
    53   27   69 1
    54   27   70 1
    55   28   29 1
    56   28   33 1
    57   28   30 1
    58   30   31 1
    59   30   46 1
    60   31   32 1
    61   31   34 1
    62   31   71 1
    63   32   33 1
    64   32   72 1
    65   32   73 1
    66   33   74 1
    67   33   75 1
    68   34   35 1
    69   34   76 1
    70   34   77 1
    71   35   36 1
    72   35   78 1
    73   35   79 1
    74   36   37 1
    75   36   44 1
    76   36   38 1
    77   38   39 1
    78   38   80 1
    79   38   81 1
    80   39   40 1
    81   39   41 1
    82   39   45 1
    83   41   42 1
    84   41   82 1
    85   41   83 1
    86   42   43 2
    87   42   44 1
    88   45   84 1
    89   46   85 1
    90   46   86 1
    91   46   87 1
@<TRIPOS>MOLECULE
CHEMBL424546
   40    43     0     0     0
SMALL
USER_CHARGES

@<TRIPOS>ATOM
      1 C1          0.1156    1.1058   -0.0889 C.ar      1 <0>        -0.1420
      2 C2          1.2555    1.8896   -0.0722 C.ar      1 <0>        -0.0676
      3 C3          2.5005    1.2980   -0.0433 C.ar      1 <0>        -0.0972
      4 C4          2.6198   -0.0893   -0.0307 C.ar      1 <0>        -0.0209
      5 C5          1.4671   -0.8757   -0.0475 C.ar      1 <0>        -0.1283
      6 C6          0.2228   -0.2752   -0.0766 C.ar      1 <0>         0.1055
      7 F1         -0.8925   -1.0375   -0.0925 F         1 <0>        -0.1348
      8 C7          4.0561   -0.4614   -0.0001 C.ar      1 <0>        -0.0259
      9 C8          4.6821   -1.7091    0.0208 C.ar      1 <0>        -0.0722
     10 C9          6.0600   -1.7892    0.0476 C.ar      1 <0>        -0.0200
     11 C10         6.8255   -0.6358    0.0539 C.ar      1 <0>        -0.0935
     12 C11         6.2111    0.6046    0.0332 C.ar      1 <0>         0.0058
     13 C12         4.8339    0.6929    0.0064 C.ar      1 <0>        -0.0504
     14 C13         3.8951    1.8742   -0.0205 C.3       1 <0>        -0.0047
     15 C14         4.0907    2.7311    1.2318 C.3       1 <0>        -0.1054
     16 C15         3.7462    1.9059    2.4733 C.3       1 <0>         0.1074
     17 C16         3.7969    2.8025    3.7133 C.3       1 <0>        -0.1528
     18 C17         3.4921    1.9642    4.9589 C.3       1 <0>         0.1054
     19 H1          3.5398    2.5967    5.8453 H         1 <0>         0.0787
     20 C18         4.5343    0.8441    5.0700 C.3       1 <0>        -0.2063
     21 C19         4.5864    0.1111    3.7474 C.2       1 <0>         0.4932
     22 O1          4.5330   -1.0951    3.7028 O.2       1 <0>        -0.4481
     23 O2          4.6948    0.8431    2.6193 O.3       1 <0>        -0.3567
     24 O3          2.1857    1.3963    4.8458 O.3       1 <0>        -0.5625
     25 Cl1         7.1731    2.0496    0.0417 Cl        1 <0>        -0.0559
     26 Cl2         6.8356   -3.3421    0.0741 Cl        1 <0>        -0.0532
     27 H2         -0.8589    1.5711   -0.1070 H         1 <0>         0.1430
     28 H3          1.1700    2.9662   -0.0822 H         1 <0>         0.1390
     29 H4          1.5474   -1.9527   -0.0383 H         1 <0>         0.1377
     30 H5          4.0886   -2.6113    0.0163 H         1 <0>         0.1377
     31 H6          7.9032   -0.7037    0.0752 H         1 <0>         0.1467
     32 H7          4.0691    2.4715   -0.9155 H         1 <0>         0.1161
     33 H8          5.1288    3.0583    1.2897 H         1 <0>         0.0924
     34 H9          3.4374    3.6021    1.1817 H         1 <0>         0.0995
     35 H10         2.7452    1.4880    2.3663 H         1 <0>         0.0883
     36 H11         4.7904    3.2413    3.8044 H         1 <0>         0.0961
     37 H12         3.0557    3.5961    3.6187 H         1 <0>         0.0975
     38 H13         5.5118    1.2724    5.2916 H         1 <0>         0.1168
     39 H14         4.2474    0.1526    5.8623 H         1 <0>         0.1059
     40 H15         1.9267    0.8518    5.6018 H         1 <0>         0.3858
@<TRIPOS>BOND
     1    1    6 ar
     2    1    2 ar
     3    1   27 1
     4    2    3 ar
     5    2   28 1
     6    3   14 1
     7    3    4 ar
     8    4    5 ar
     9    4    8 1
    10    5    6 ar
    11    5   29 1
    12    6    7 1
    13    8   13 ar
    14    8    9 ar
    15    9   10 ar
    16    9   30 1
    17   10   11 ar
    18   10   26 1
    19   11   12 ar
    20   11   31 1
    21   12   13 ar
    22   12   25 1
    23   13   14 1
    24   14   15 1
    25   14   32 1
    26   15   16 1
    27   15   33 1
    28   15   34 1
    29   16   23 1
    30   16   17 1
    31   16   35 1
    32   17   18 1
    33   17   36 1
    34   17   37 1
    35   18   19 1
    36   18   20 1
    37   18   24 1
    38   20   21 1
    39   20   38 1
    40   20   39 1
    41   21   22 2
    42   21   23 1
    43   24   40 1
@<TRIPOS>MOLECULE
CHEMBL424546__1
   40    43     0     0     0
SMALL
USER_CHARGES

@<TRIPOS>ATOM
      1 C1         -0.0727    1.5555    0.0187 C.ar      1 <0>        -0.1368
      2 C2          1.1492    2.2041    0.0002 C.ar      1 <0>        -0.0741
      3 C3          2.3190    1.4745    0.0111 C.ar      1 <0>        -0.0889
      4 C4          2.2796    0.0828    0.0407 C.ar      1 <0>        -0.0285
      5 C5          1.0447   -0.5668    0.0594 C.ar      1 <0>        -0.1232
      6 C6         -0.1233    0.1715    0.0483 C.ar      1 <0>         0.1050
      7 F1         -1.3184   -0.4584    0.0667 F         1 <0>        -0.1331
      8 C7          3.6645   -0.4506    0.0461 C.ar      1 <0>        -0.0290
      9 C8          4.1445   -1.7613    0.0713 C.ar      1 <0>        -0.0797
     10 C9          5.5045   -1.9980    0.0700 C.ar      1 <0>        -0.0219
     11 C10         6.3965   -0.9397    0.0438 C.ar      1 <0>        -0.0925
     12 C11         5.9271    0.3624    0.0187 C.ar      1 <0>        -0.0029
     13 C12         4.5687    0.6073    0.0198 C.ar      1 <0>        -0.0720
     14 C13         3.7704    1.8877   -0.0039 C.3       1 <0>        -0.0054
     15 C14         4.0907    2.7311    1.2318 C.3       1 <0>        -0.1006
     16 C15         3.3349    4.0590    1.1529 C.3       1 <0>         0.1009
     17 C16         3.6245    4.8873    2.4074 C.3       1 <0>        -0.1559
     18 C17         2.8994    6.2331    2.3059 C.3       1 <0>         0.1096
     19 H1          1.8254    6.0642    2.2281 H         1 <0>         0.0679
     20 C18         3.3955    6.9707    1.0558 C.3       1 <0>        -0.2056
     21 C19         3.2724    6.0357   -0.1274 C.2       1 <0>         0.4915
     22 O1          2.7477    6.3979   -1.1538 O.2       1 <0>        -0.4453
     23 O2          3.7652    4.7860   -0.0034 O.3       1 <0>        -0.3633
     24 O3          3.1779    7.0158    3.4686 O.3       1 <0>        -0.5546
     25 Cl1         7.0476    1.6881   -0.0136 Cl        1 <0>        -0.0446
     26 Cl2         6.0984   -3.6290    0.1021 Cl        1 <0>        -0.0464
     27 H2         -0.9879    2.1289    0.0147 H         1 <0>         0.1446
     28 H3          1.1868    3.2832   -0.0232 H         1 <0>         0.1364
     29 H4          1.0019   -1.6457    0.0821 H         1 <0>         0.1405
     30 H5          3.4520   -2.5898    0.0922 H         1 <0>         0.1436
     31 H6          7.4596   -1.1301    0.0433 H         1 <0>         0.1522
     32 H7          3.9910    2.4507   -0.9107 H         1 <0>         0.1239
     33 H8          3.7855    2.1920    2.1287 H         1 <0>         0.0973
     34 H9          5.1626    2.9249    1.2715 H         1 <0>         0.0950
     35 H10         2.2646    3.8649    1.0833 H         1 <0>         0.0883
     36 H11         3.2719    4.3497    3.2876 H         1 <0>         0.1006
     37 H12         4.6978    5.0579    2.4908 H         1 <0>         0.0937
     38 H13         2.7865    7.8588    0.8873 H         1 <0>         0.1083
     39 H14         4.4381    7.2594    1.1890 H         1 <0>         0.1189
     40 H15         2.7495    7.8827    3.4710 H         1 <0>         0.3863
@<TRIPOS>BOND
     1    1    6 ar
     2    1    2 ar
     3    1   27 1
     4    2    3 ar
     5    2   28 1
     6    3   14 1
     7    3    4 ar
     8    4    5 ar
     9    4    8 1
    10    5    6 ar
    11    5   29 1
    12    6    7 1
    13    8   13 ar
    14    8    9 ar
    15    9   10 ar
    16    9   30 1
    17   10   11 ar
    18   10   26 1
    19   11   12 ar
    20   11   31 1
    21   12   13 ar
    22   12   25 1
    23   13   14 1
    24   14   15 1
    25   14   32 1
    26   15   16 1
    27   15   33 1
    28   15   34 1
    29   16   23 1
    30   16   17 1
    31   16   35 1
    32   17   18 1
    33   17   36 1
    34   17   37 1
    35   18   19 1
    36   18   20 1
    37   18   24 1
    38   20   21 1
    39   20   38 1
    40   20   39 1
    41   21   22 2
    42   21   23 1
    43   24   40 1
@<TRIPOS>MOLECULE
CHEMBL424546__2
   40    43     0     0     0
SMALL
USER_CHARGES

@<TRIPOS>ATOM
      1 C1          0.2080    1.1522    0.3854 C.ar      1 <0>        -0.1358
      2 C2          1.3184    1.9637    0.2348 C.ar      1 <0>        -0.0702
      3 C3          2.5809    1.4101    0.2135 C.ar      1 <0>        -0.0886
      4 C4          2.7476    0.0337    0.3431 C.ar      1 <0>        -0.0305
      5 C5          1.6246   -0.7806    0.4948 C.ar      1 <0>        -0.1245
      6 C6          0.3625   -0.2182    0.5151 C.ar      1 <0>         0.1041
      7 F1         -0.7241   -1.0074    0.6624 F         1 <0>        -0.1338
      8 C7          4.1935   -0.2963    0.2873 C.ar      1 <0>        -0.0280
      9 C8          4.8609   -1.5197    0.3699 C.ar      1 <0>        -0.0802
     10 C9          6.2383   -1.5610    0.2886 C.ar      1 <0>        -0.0222
     11 C10         6.9625   -0.3925    0.1251 C.ar      1 <0>        -0.0933
     12 C11         6.3068    0.8240    0.0424 C.ar      1 <0>        -0.0030
     13 C12         4.9298    0.8734    0.1229 C.ar      1 <0>        -0.0720
     14 C13         3.9526    2.0220    0.0666 C.3       1 <0>        -0.0050
     15 C14         4.0659    2.7446   -1.2772 C.3       1 <0>        -0.1024
     16 C15         3.1258    3.9516   -1.2881 C.3       1 <0>         0.0999
     17 C16         3.2108    4.6535   -2.6461 C.3       1 <0>        -0.1538
     18 C17         2.2997    5.8851   -2.6390 C.3       1 <0>         0.1048
     19 H1          2.3673    6.3949   -3.6001 H         1 <0>         0.0812
     20 C18         2.7549    6.8325   -1.5216 C.3       1 <0>        -0.2054
     21 C19         2.8457    6.0406   -0.2355 C.2       1 <0>         0.4956
     22 O1          2.3367    6.4473    0.7820 O.2       1 <0>        -0.4502
     23 O2          3.5119    4.8676   -0.2574 O.3       1 <0>        -0.3665
     24 O3          0.9492    5.4802   -2.4060 O.3       1 <0>        -0.5639
     25 Cl1         7.2171    2.2880   -0.1620 Cl        1 <0>        -0.0458
     26 Cl2         7.0655   -3.0837    0.3923 Cl        1 <0>        -0.0471
     27 H2         -0.7799    1.5882    0.4063 H         1 <0>         0.1444
     28 H3          1.1961    3.0319    0.1334 H         1 <0>         0.1390
     29 H4          1.7417   -1.8495    0.5959 H         1 <0>         0.1398
     30 H5          4.2997   -2.4336    0.4978 H         1 <0>         0.1435
     31 H6          8.0400   -0.4300    0.0624 H         1 <0>         0.1517
     32 H7          4.1430    2.7171    0.8844 H         1 <0>         0.1227
     33 H8          5.0921    3.0820   -1.4229 H         1 <0>         0.0921
     34 H9          3.7903    2.0621   -2.0811 H         1 <0>         0.0947
     35 H10         2.1029    3.6177   -1.1138 H         1 <0>         0.0962
     36 H11         4.2393    4.9631   -2.8316 H         1 <0>         0.0978
     37 H12         2.8898    3.9681   -3.4305 H         1 <0>         0.0997
     38 H13         3.7323    7.2476   -1.7673 H         1 <0>         0.1191
     39 H14         2.0310    7.6391   -1.4061 H         1 <0>         0.1087
     40 H15         0.3167    6.2115   -2.3887 H         1 <0>         0.3872
@<TRIPOS>BOND
     1    1    6 ar
     2    1    2 ar
     3    1   27 1
     4    2    3 ar
     5    2   28 1
     6    3   14 1
     7    3    4 ar
     8    4    5 ar
     9    4    8 1
    10    5    6 ar
    11    5   29 1
    12    6    7 1
    13    8   13 ar
    14    8    9 ar
    15    9   10 ar
    16    9   30 1
    17   10   11 ar
    18   10   26 1
    19   11   12 ar
    20   11   31 1
    21   12   13 ar
    22   12   25 1
    23   13   14 1
    24   14   15 1
    25   14   32 1
    26   15   16 1
    27   15   33 1
    28   15   34 1
    29   16   23 1
    30   16   17 1
    31   16   35 1
    32   17   18 1
    33   17   36 1
    34   17   37 1
    35   18   19 1
    36   18   20 1
    37   18   24 1
    38   20   21 1
    39   20   38 1
    40   20   39 1
    41   21   22 2
    42   21   23 1
    43   24   40 1
@<TRIPOS>MOLECULE
CHEMBL424546__3
   40    43     0     0     0
SMALL
USER_CHARGES

@<TRIPOS>ATOM
      1 C1         -0.0394    1.0725   -0.5469 C.ar      1 <0>        -0.1437
      2 C2          1.0724    1.8850   -0.4141 C.ar      1 <0>        -0.0688
      3 C3          2.3164    1.3261   -0.2117 C.ar      1 <0>        -0.0991
      4 C4          2.4628   -0.0569   -0.1397 C.ar      1 <0>        -0.0203
      5 C5          1.3383   -0.8722   -0.2742 C.ar      1 <0>        -0.1289
      6 C6          0.0948   -0.3044   -0.4769 C.ar      1 <0>         0.1053
      7 F1         -0.9933   -1.0946   -0.6066 F         1 <0>        -0.1342
      8 C7          3.8916   -0.3916    0.0810 C.ar      1 <0>        -0.0272
      9 C8          4.5366   -1.6220    0.2197 C.ar      1 <0>        -0.0716
     10 C9          5.9017   -1.6665    0.4200 C.ar      1 <0>        -0.0203
     11 C10         6.6357   -0.4946    0.4841 C.ar      1 <0>        -0.0926
     12 C11         6.0023    0.7288    0.3473 C.ar      1 <0>         0.0052
     13 C12         4.6377    0.7816    0.1468 C.ar      1 <0>        -0.0506
     14 C13         3.6847    1.9375   -0.0346 C.3       1 <0>        -0.0046
     15 C14         4.0659    2.7446   -1.2772 C.3       1 <0>        -0.1029
     16 C15         3.9375    1.8601   -2.5190 C.3       1 <0>         0.1071
     17 C16         4.2036    2.6974   -3.7728 C.3       1 <0>        -0.1540
     18 C17         4.1150    1.7998   -5.0111 C.3       1 <0>         0.1103
     19 H1          3.1178    1.3645   -5.0760 H         1 <0>         0.0656
     20 C18         5.1572    0.6809   -4.8883 C.3       1 <0>        -0.2057
     21 C19         4.9787    0.0114   -3.5432 C.2       1 <0>         0.4884
     22 O1          4.9141   -1.1916   -3.4515 O.2       1 <0>        -0.4429
     23 O2          4.8936    0.7964   -2.4492 O.3       1 <0>        -0.3538
     24 O3          4.3764    2.5742   -6.1833 O.3       1 <0>        -0.5554
     25 Cl1         6.9247    2.1972    0.4286 Cl        1 <0>        -0.0545
     26 Cl2         6.7009   -3.1979    0.5927 Cl        1 <0>        -0.0524
     27 H2         -1.0137    1.5124   -0.7009 H         1 <0>         0.1436
     28 H3          0.9659    2.9583   -0.4694 H         1 <0>         0.1401
     29 H4          1.4398   -1.9461   -0.2203 H         1 <0>         0.1384
     30 H5          3.9677   -2.5386    0.1707 H         1 <0>         0.1380
     31 H6          7.7035   -0.5346    0.6413 H         1 <0>         0.1471
     32 H7          3.6985    2.5772    0.8479 H         1 <0>         0.1178
     33 H8          3.4001    3.6024   -1.3717 H         1 <0>         0.1022
     34 H9          5.0948    3.0919   -1.1833 H         1 <0>         0.0951
     35 H10         2.9317    1.4428   -2.5661 H         1 <0>         0.0804
     36 H11         3.4598    3.4909   -3.8448 H         1 <0>         0.0985
     37 H12         5.1995    3.1364   -3.7123 H         1 <0>         0.0923
     38 H13         5.0087   -0.0486   -5.6844 H         1 <0>         0.1055
     39 H14         6.1597    1.1032   -4.9583 H         1 <0>         0.1169
     40 H15         4.3367    2.0678   -7.0062 H         1 <0>         0.3856
@<TRIPOS>BOND
     1    1    6 ar
     2    1    2 ar
     3    1   27 1
     4    2    3 ar
     5    2   28 1
     6    3   14 1
     7    3    4 ar
     8    4    5 ar
     9    4    8 1
    10    5    6 ar
    11    5   29 1
    12    6    7 1
    13    8   13 ar
    14    8    9 ar
    15    9   10 ar
    16    9   30 1
    17   10   11 ar
    18   10   26 1
    19   11   12 ar
    20   11   31 1
    21   12   13 ar
    22   12   25 1
    23   13   14 1
    24   14   15 1
    25   14   32 1
    26   15   16 1
    27   15   33 1
    28   15   34 1
    29   16   23 1
    30   16   17 1
    31   16   35 1
    32   17   18 1
    33   17   36 1
    34   17   37 1
    35   18   19 1
    36   18   20 1
    37   18   24 1
    38   20   21 1
    39   20   38 1
    40   20   39 1
    41   21   22 2
    42   21   23 1
    43   24   40 1
@<TRIPOS>MOLECULE
CHEMBL154698
   58    61     0     0     0
SMALL
USER_CHARGES

@<TRIPOS>ATOM
      1 C1         -0.0187    1.5258    0.0104 C.3       1 <0>        -0.1461
      2 C2          0.0021   -0.0041    0.0020 C.3       1 <0>        -0.0609
      3 C3          0.7421   -0.5109    1.2415 C.3       1 <0>        -0.1438
      4 C4         -1.4117   -0.5257    0.0127 C.ar      1 <0>        -0.0120
      5 C5         -2.2721   -0.2141    1.0480 C.ar      1 <0>        -0.1568
      6 C6         -3.5753   -0.7116    1.0296 C.ar      1 <0>         0.1786
      7 N1         -3.9995   -1.4781    0.0342 N.ar      1 <0>        -0.4692
      8 C7         -3.2100   -1.8022   -0.9783 C.ar      1 <0>         0.1883
      9 C8         -1.8850   -1.3318   -1.0285 C.ar      1 <0>        -0.0995
     10 C9         -1.0063   -1.6875   -2.1590 C.2       1 <0>        -0.0935
     11 C10        -0.8925   -2.9547   -2.5381 C.2       1 <0>        -0.1437
     12 C11         0.0050   -3.3180   -3.6928 C.3       1 <0>         0.1441
     13 C12         1.0143   -4.3773   -3.2421 C.3       1 <0>        -0.1476
     14 C13         1.9513   -4.7139   -4.4065 C.3       1 <0>         0.1042
     15 H1          2.6796   -5.4587   -4.0856 H         1 <0>         0.0817
     16 C14         2.6804   -3.4363   -4.8417 C.3       1 <0>        -0.2046
     17 C15         1.6462   -2.3589   -5.0845 C.2       1 <0>         0.4978
     18 O1          1.6596   -1.7018   -6.0984 O.2       1 <0>        -0.4493
     19 O2          0.7091   -2.1526   -4.1362 O.3       1 <0>        -0.3696
     20 O3          1.1896   -5.2295   -5.5002 O.3       1 <0>        -0.5630
     21 C16        -3.7273   -2.6614   -2.0685 C.ar      1 <0>        -0.0625
     22 C17        -3.3009   -2.4589   -3.3809 C.ar      1 <0>        -0.0612
     23 C18        -3.7850   -3.2618   -4.3926 C.ar      1 <0>        -0.1592
     24 C19        -4.6937   -4.2683   -4.1067 C.ar      1 <0>         0.1136
     25 C20        -5.1203   -4.4733   -2.8043 C.ar      1 <0>        -0.1605
     26 C21        -4.6379   -3.6790   -1.7851 C.ar      1 <0>        -0.0509
     27 F1         -5.1654   -5.0519   -5.1010 F         1 <0>        -0.1367
     28 C22        -4.4997   -0.3787    2.1399 C.ar      1 <0>        -0.0525
     29 C23        -4.0690    0.4303    3.1903 C.ar      1 <0>        -0.1000
     30 C24        -4.9338    0.7368    4.2211 C.ar      1 <0>        -0.1231
     31 C25        -6.2258    0.2425    4.2136 C.ar      1 <0>        -0.1071
     32 C26        -6.6587   -0.5612    3.1742 C.ar      1 <0>        -0.1253
     33 C27        -5.8048   -0.8689    2.1347 C.ar      1 <0>        -0.0785
     34 H2          1.0039    1.9031    0.0027 H         1 <0>         0.0642
     35 H3         -0.5459    1.8868   -0.8726 H         1 <0>         0.0581
     36 H4         -0.5289    1.8773    0.9072 H         1 <0>         0.0583
     37 H5          0.5123   -0.3556   -0.8948 H         1 <0>         0.0888
     38 H6          0.2319   -0.1594    2.1383 H         1 <0>         0.0580
     39 H7          0.7568   -1.6008    1.2356 H         1 <0>         0.0569
     40 H8          1.7647   -0.1336    1.2338 H         1 <0>         0.0637
     41 H9         -1.9384    0.4089    1.8646 H         1 <0>         0.1393
     42 H10        -0.4556   -0.9170   -2.6781 H         1 <0>         0.1391
     43 H11        -1.4432   -3.7252   -2.0189 H         1 <0>         0.1354
     44 H12        -0.5968   -3.7130   -4.5113 H         1 <0>         0.0988
     45 H13         1.5974   -3.9915   -2.4059 H         1 <0>         0.0978
     46 H14         0.4830   -5.2768   -2.9311 H         1 <0>         0.1004
     47 H15         3.3650   -3.1181   -4.0555 H         1 <0>         0.1192
     48 H16         3.2366   -3.6253   -5.7598 H         1 <0>         0.1091
     49 H17         1.7208   -5.4641   -6.2734 H         1 <0>         0.3873
     50 H18        -2.5930   -1.6746   -3.6047 H         1 <0>         0.1410
     51 H19        -3.4556   -3.1056   -5.4092 H         1 <0>         0.1388
     52 H20        -5.8286   -5.2590   -2.5863 H         1 <0>         0.1390
     53 H21        -4.9675   -3.8425   -0.7697 H         1 <0>         0.1385
     54 H22        -3.0603    0.8162    3.1975 H         1 <0>         0.1255
     55 H23        -4.6012    1.3635    5.0353 H         1 <0>         0.1266
     56 H24        -6.8991    0.4847    5.0226 H         1 <0>         0.1245
     57 H25        -7.6683   -0.9445    3.1738 H         1 <0>         0.1261
     58 H26        -6.1454   -1.4921    1.3211 H         1 <0>         0.1345
@<TRIPOS>BOND
     1    1    2 1
     2    1   34 1
     3    1   35 1
     4    1   36 1
     5    2    3 1
     6    2    4 1
     7    2   37 1
     8    3   38 1
     9    3   39 1
    10    3   40 1
    11    4    9 ar
    12    4    5 ar
    13    5    6 ar
    14    5   41 1
    15    6    7 ar
    16    6   28 1
    17    7    8 ar
    18    8    9 ar
    19    8   21 1
    20    9   10 1
    21   10   11 2
    22   10   42 1
    23   11   12 1
    24   11   43 1
    25   12   19 1
    26   12   13 1
    27   12   44 1
    28   13   14 1
    29   13   45 1
    30   13   46 1
    31   14   15 1
    32   14   16 1
    33   14   20 1
    34   16   17 1
    35   16   47 1
    36   16   48 1
    37   17   18 2
    38   17   19 1
    39   20   49 1
    40   21   26 ar
    41   21   22 ar
    42   22   23 ar
    43   22   50 1
    44   23   24 ar
    45   23   51 1
    46   24   25 ar
    47   24   27 1
    48   25   26 ar
    49   25   52 1
    50   26   53 1
    51   28   33 ar
    52   28   29 ar
    53   29   30 ar
    54   29   54 1
    55   30   31 ar
    56   30   55 1
    57   31   32 ar
    58   31   56 1
    59   32   33 ar
    60   32   57 1
    61   33   58 1
@<TRIPOS>MOLECULE
CHEMBL154698__1
   58    61     0     0     0
SMALL
USER_CHARGES

@<TRIPOS>ATOM
      1 C1         -0.0187    1.5258    0.0104 C.3       1 <0>        -0.1467
      2 C2          0.0021   -0.0041    0.0020 C.3       1 <0>        -0.0599
      3 C3          0.7421   -0.5109    1.2415 C.3       1 <0>        -0.1452
      4 C4         -1.4117   -0.5257    0.0127 C.ar      1 <0>        -0.0097
      5 C5         -2.2721   -0.2141    1.0480 C.ar      1 <0>        -0.1597
      6 C6         -3.5753   -0.7116    1.0296 C.ar      1 <0>         0.1833
      7 N1         -3.9995   -1.4781    0.0342 N.ar      1 <0>        -0.4703
      8 C7         -3.2100   -1.8022   -0.9783 C.ar      1 <0>         0.1972
      9 C8         -1.8850   -1.3318   -1.0285 C.ar      1 <0>        -0.1064
     10 C9         -1.0063   -1.6875   -2.1590 C.2       1 <0>        -0.0893
     11 C10        -0.8925   -2.9547   -2.5381 C.2       1 <0>        -0.1305
     12 C11         0.0050   -3.3180   -3.6928 C.3       1 <0>         0.1438
     13 C12         1.0859   -4.2907   -3.2137 C.3       1 <0>        -0.1513
     14 C13         1.9711   -4.6900   -4.3987 C.3       1 <0>         0.1100
     15 H1          2.4470   -3.8019   -4.8145 H         1 <0>         0.0681
     16 C14         1.0961   -5.3535   -5.4699 C.3       1 <0>        -0.2057
     17 C15        -0.0704   -4.4362   -5.7651 C.2       1 <0>         0.4917
     18 O1         -0.3669   -4.1541   -6.9020 O.2       1 <0>        -0.4451
     19 O2         -0.7698   -3.9423   -4.7226 O.3       1 <0>        -0.3571
     20 O3          2.9734   -5.6089   -3.9592 O.3       1 <0>        -0.5548
     21 C16        -3.7273   -2.6614   -2.0685 C.ar      1 <0>        -0.0680
     22 C17        -3.3009   -2.4589   -3.3809 C.ar      1 <0>        -0.0557
     23 C18        -3.7850   -3.2618   -4.3926 C.ar      1 <0>        -0.1408
     24 C19        -4.6937   -4.2683   -4.1067 C.ar      1 <0>         0.1124
     25 C20        -5.1203   -4.4733   -2.8043 C.ar      1 <0>        -0.1612
     26 C21        -4.6379   -3.6790   -1.7851 C.ar      1 <0>        -0.0528
     27 F1         -5.1654   -5.0519   -5.1010 F         1 <0>        -0.1378
     28 C22        -4.4997   -0.3787    2.1399 C.ar      1 <0>        -0.0544
     29 C23        -4.0690    0.4303    3.1903 C.ar      1 <0>        -0.0993
     30 C24        -4.9338    0.7368    4.2211 C.ar      1 <0>        -0.1234
     31 C25        -6.2258    0.2425    4.2136 C.ar      1 <0>        -0.1062
     32 C26        -6.6587   -0.5612    3.1742 C.ar      1 <0>        -0.1254
     33 C27        -5.8048   -0.8689    2.1347 C.ar      1 <0>        -0.0776
     34 H2          1.0039    1.9031    0.0027 H         1 <0>         0.0647
     35 H3         -0.5459    1.8868   -0.8726 H         1 <0>         0.0580
     36 H4         -0.5289    1.8773    0.9072 H         1 <0>         0.0592
     37 H5          0.5123   -0.3556   -0.8948 H         1 <0>         0.0863
     38 H6          0.2319   -0.1594    2.1383 H         1 <0>         0.0588
     39 H7          0.7568   -1.6008    1.2356 H         1 <0>         0.0580
     40 H8          1.7647   -0.1336    1.2338 H         1 <0>         0.0645
     41 H9         -1.9384    0.4089    1.8646 H         1 <0>         0.1398
     42 H10        -0.4556   -0.9170   -2.6781 H         1 <0>         0.1314
     43 H11        -1.4432   -3.7252   -2.0189 H         1 <0>         0.1286
     44 H12         0.4745   -2.4165   -4.0865 H         1 <0>         0.0848
     45 H13         1.6963   -3.8086   -2.4500 H         1 <0>         0.1001
     46 H14         0.6151   -5.1803   -2.7954 H         1 <0>         0.0933
     47 H15         1.6802   -5.5088   -6.3769 H         1 <0>         0.1079
     48 H16         0.7268   -6.3106   -5.1016 H         1 <0>         0.1185
     49 H17         3.5706   -5.9042   -4.6601 H         1 <0>         0.3863
     50 H18        -2.5930   -1.6746   -3.6047 H         1 <0>         0.1361
     51 H19        -3.4556   -3.1056   -5.4092 H         1 <0>         0.1387
     52 H20        -5.8286   -5.2590   -2.5863 H         1 <0>         0.1375
     53 H21        -4.9675   -3.8425   -0.7697 H         1 <0>         0.1369
     54 H22        -3.0603    0.8162    3.1975 H         1 <0>         0.1256
     55 H23        -4.6012    1.3635    5.0353 H         1 <0>         0.1268
     56 H24        -6.8991    0.4847    5.0226 H         1 <0>         0.1247
     57 H25        -7.6683   -0.9445    3.1738 H         1 <0>         0.1264
     58 H26        -6.1454   -1.4921    1.3211 H         1 <0>         0.1349
@<TRIPOS>BOND
     1    1    2 1
     2    1   34 1
     3    1   35 1
     4    1   36 1
     5    2    3 1
     6    2    4 1
     7    2   37 1
     8    3   38 1
     9    3   39 1
    10    3   40 1
    11    4    9 ar
    12    4    5 ar
    13    5    6 ar
    14    5   41 1
    15    6    7 ar
    16    6   28 1
    17    7    8 ar
    18    8    9 ar
    19    8   21 1
    20    9   10 1
    21   10   11 2
    22   10   42 1
    23   11   12 1
    24   11   43 1
    25   12   19 1
    26   12   13 1
    27   12   44 1
    28   13   14 1
    29   13   45 1
    30   13   46 1
    31   14   15 1
    32   14   16 1
    33   14   20 1
    34   16   17 1
    35   16   47 1
    36   16   48 1
    37   17   18 2
    38   17   19 1
    39   20   49 1
    40   21   26 ar
    41   21   22 ar
    42   22   23 ar
    43   22   50 1
    44   23   24 ar
    45   23   51 1
    46   24   25 ar
    47   24   27 1
    48   25   26 ar
    49   25   52 1
    50   26   53 1
    51   28   33 ar
    52   28   29 ar
    53   29   30 ar
    54   29   54 1
    55   30   31 ar
    56   30   55 1
    57   31   32 ar
    58   31   56 1
    59   32   33 ar
    60   32   57 1
    61   33   58 1
@<TRIPOS>MOLECULE
CHEMBL400576
   65    67     0     0     0
SMALL
USER_CHARGES

@<TRIPOS>ATOM
      1 C1          0.8409   -1.8908    0.6299 C.3       1 <0>        -0.1539
      2 C2          0.1254   -0.5787    0.3022 C.3       1 <0>        -0.0116
      3 C3          0.7452    0.0408   -0.9519 C.3       1 <0>        -0.1442
      4 C4         -1.3365   -0.8512    0.0580 C.2       1 <0>        -0.1822
      5 C5         -2.4185   -0.2503    0.7356 C.2       1 <0>         0.0596
      6 N1         -3.5370   -0.7454    0.2411 N.2       1 <0>        -0.2344
      7 N2         -3.2035   -1.6687   -0.7580 N.pl3     1 <0>        -0.3269
      8 C6         -1.8465   -1.7129   -0.8559 C.2       1 <0>         0.2690
      9 O1         -1.1311   -2.4848   -1.7138 O.3       1 <0>        -0.2829
     10 C7         -0.9357   -3.8521   -1.3473 C.3       1 <0>         0.0225
     11 C8         -0.0072   -4.5240   -2.3609 C.3       1 <0>         0.1210
     12 H1         -0.4123   -4.3968   -3.3648 H         1 <0>         0.1087
     13 C9          0.1029   -6.0161   -2.0408 C.3       1 <0>        -0.1846
     14 C10         0.9296   -6.7107   -3.1248 C.3       1 <0>         0.1405
     15 H2          0.4918   -6.5070   -4.1020 H         1 <0>         0.0954
     16 C11         0.9355   -8.2198   -2.8732 C.3       1 <0>        -0.2193
     17 C12         1.6451   -8.9153   -4.0063 C.2       1 <0>         0.4907
     18 O2          2.1036   -8.2642   -4.9295 O.co2     1 <0>        -0.6799
     19 O3          1.7607  -10.1290   -3.9997 O.co2     1 <0>        -0.7119
     20 O4          2.2701   -6.2169   -3.0911 O.3       1 <0>        -0.5260
     21 O5          1.2882   -3.9249   -2.2904 O.3       1 <0>        -0.5270
     22 C13        -4.1091   -2.4132   -1.5264 C.ar      1 <0>         0.1280
     23 C14        -5.2330   -2.9699   -0.9306 C.ar      1 <0>        -0.0764
     24 C15        -6.1239   -3.7031   -1.6892 C.ar      1 <0>        -0.1389
     25 C16        -5.8968   -3.8838   -3.0434 C.ar      1 <0>         0.1075
     26 C17        -4.7762   -3.3297   -3.6394 C.ar      1 <0>        -0.1323
     27 C18        -3.8864   -2.5903   -2.8854 C.ar      1 <0>        -0.0823
     28 F1         -6.7694   -4.6018   -3.7839 F         1 <0>        -0.1318
     29 C19        -2.3167    0.7563    1.8112 C.2       1 <0>         0.6101
     30 O6         -2.0379    1.9085    1.5411 O.2       1 <0>        -0.5163
     31 N3         -2.5329    0.3979    3.0924 N.am      1 <0>        -0.5990
     32 C20        -2.7696   -1.0083    3.4465 C.3       1 <0>         0.1104
     33 C21        -1.7800   -1.4138    4.5433 C.3       1 <0>        -0.1361
     34 C22        -1.9002   -0.4409    5.7185 C.3       1 <0>        -0.1204
     35 C23        -1.5493    0.9732    5.2502 C.3       1 <0>        -0.1356
     36 C24        -2.5303    1.4050    4.1621 C.3       1 <0>         0.1116
     37 H3          1.9076   -1.7023    0.7519 H         1 <0>         0.0639
     38 H4          0.4369   -2.3041    1.5540 H         1 <0>         0.0494
     39 H5          0.6881   -2.6008   -0.1830 H         1 <0>         0.0658
     40 H6          0.2315    0.1117    1.1390 H         1 <0>         0.0740
     41 H7          0.5632   -0.6104   -1.8068 H         1 <0>         0.0683
     42 H8          0.2948    1.0162   -1.1359 H         1 <0>         0.0528
     43 H9          1.8191    0.1581   -0.8066 H         1 <0>         0.0586
     44 H10        -0.4872   -3.9018   -0.3551 H         1 <0>         0.0689
     45 H11        -1.8966   -4.3667   -1.3380 H         1 <0>         0.0631
     46 H12         0.5895   -6.1454   -1.0740 H         1 <0>         0.0672
     47 H13        -0.8943   -6.4551   -2.0072 H         1 <0>         0.0771
     48 H14         1.4527   -8.4301   -1.9370 H         1 <0>         0.0572
     49 H15        -0.0908   -8.5818   -2.8105 H         1 <0>         0.0615
     50 H16         2.7224   -6.3640   -2.2492 H         1 <0>         0.3509
     51 H17         1.7098   -4.0004   -1.4235 H         1 <0>         0.3644
     52 H18        -5.4100   -2.8298    0.1256 H         1 <0>         0.1427
     53 H19        -6.9982   -4.1363   -1.2262 H         1 <0>         0.1467
     54 H20        -4.6006   -3.4720   -4.6955 H         1 <0>         0.1502
     55 H21        -3.0151   -2.1543   -3.3515 H         1 <0>         0.1474
     56 H22        -3.7894   -1.1262    3.8127 H         1 <0>         0.0730
     57 H23        -2.6195   -1.6365    2.5685 H         1 <0>         0.0813
     58 H24        -2.0073   -2.4243    4.8829 H         1 <0>         0.0774
     59 H25        -0.7650   -1.3823    4.1473 H         1 <0>         0.0701
     60 H26        -2.9219   -0.4546    6.0982 H         1 <0>         0.0650
     61 H27        -1.2146   -0.7417    6.5106 H         1 <0>         0.0677
     62 H28        -1.6125    1.6617    6.0928 H         1 <0>         0.0779
     63 H29        -0.5365    0.9822    4.8475 H         1 <0>         0.0691
     64 H30        -2.2224    2.3686    3.7561 H         1 <0>         0.0958
     65 H31        -3.5302    1.4883    4.5880 H         1 <0>         0.0714
@<TRIPOS>BOND
     1    1    2 1
     2    1   37 1
     3    1   38 1
     4    1   39 1
     5    2    3 1
     6    2    4 1
     7    2   40 1
     8    3   41 1
     9    3   42 1
    10    3   43 1
    11    4    8 2
    12    4    5 1
    13    5    6 2
    14    5   29 1
    15    6    7 1
    16    7    8 1
    17    7   22 1
    18    8    9 1
    19    9   10 1
    20   10   11 1
    21   10   44 1
    22   10   45 1
    23   11   12 1
    24   11   13 1
    25   11   21 1
    26   13   14 1
    27   13   46 1
    28   13   47 1
    29   14   15 1
    30   14   16 1
    31   14   20 1
    32   16   17 1
    33   16   48 1
    34   16   49 1
    35   17   18 2
    36   17   19 1
    37   20   50 1
    38   21   51 1
    39   22   27 ar
    40   22   23 ar
    41   23   24 ar
    42   23   52 1
    43   24   25 ar
    44   24   53 1
    45   25   26 ar
    46   25   28 1
    47   26   27 ar
    48   26   54 1
    49   27   55 1
    50   29   30 2
    51   29   31 am
    52   31   36 1
    53   31   32 1
    54   32   33 1
    55   32   56 1
    56   32   57 1
    57   33   34 1
    58   33   58 1
    59   33   59 1
    60   34   35 1
    61   34   60 1
    62   34   61 1
    63   35   36 1
    64   35   62 1
    65   35   63 1
    66   36   64 1
    67   36   65 1
@<TRIPOS>MOLECULE
CHEMBL250794
   64    66     0     0     0
SMALL
USER_CHARGES

@<TRIPOS>ATOM
      1 C1          0.5914   -2.4124    0.0617 C.3       1 <0>        -0.1453
      2 C2          0.0637   -0.9828    0.1989 C.3       1 <0>        -0.0297
      3 C3          0.6129   -0.1247   -0.9425 C.3       1 <0>        -0.1477
      4 C4         -1.4421   -0.9952    0.1383 C.2       1 <0>        -0.1600
      5 C5         -2.3168   -0.4297    1.0901 C.2       1 <0>         0.0448
      6 N1         -3.5546   -0.6442    0.6867 N.2       1 <0>        -0.2375
      7 N2         -3.5055   -1.3467   -0.5239 N.pl3     1 <0>        -0.3175
      8 C6         -2.1973   -1.5465   -0.8433 C.2       1 <0>         0.2595
      9 O1         -1.7320   -2.1864   -1.9466 O.3       1 <0>        -0.2824
     10 C7         -1.6568   -1.4261   -3.1542 C.3       1 <0>         0.0228
     11 C8         -1.1604   -2.3219   -4.2909 C.3       1 <0>         0.1206
     12 H1         -0.2131   -2.7794   -4.0056 H         1 <0>         0.1116
     13 C9         -0.9609   -1.4807   -5.5532 C.3       1 <0>        -0.1847
     14 C10        -0.3472   -2.3493   -6.6532 C.3       1 <0>         0.1404
     15 H2          0.5717   -2.8059   -6.2854 H         1 <0>         0.0963
     16 C11        -0.0325   -1.4808   -7.8728 C.3       1 <0>        -0.2194
     17 C12         0.6830   -2.3095   -8.9084 C.2       1 <0>         0.4909
     18 O2          0.9194   -3.4857   -8.6911 O.co2     1 <0>        -0.6802
     19 O3          1.0256   -1.8037   -9.9635 O.co2     1 <0>        -0.7120
     20 O4         -1.2727   -3.3732   -7.0235 O.3       1 <0>        -0.5264
     21 O5         -2.1251   -3.3445   -4.5474 O.3       1 <0>        -0.5294
     22 C13        -4.6103   -1.7664   -1.2777 C.ar      1 <0>         0.1258
     23 C14        -5.7228   -0.9442   -1.3974 C.ar      1 <0>        -0.0783
     24 C15        -6.8103   -1.3595   -2.1404 C.ar      1 <0>        -0.1403
     25 C16        -6.7919   -2.5951   -2.7655 C.ar      1 <0>         0.1062
     26 C17        -5.6834   -3.4168   -2.6469 C.ar      1 <0>        -0.1312
     27 C18        -4.5913   -3.0023   -1.9102 C.ar      1 <0>        -0.0779
     28 F1         -7.8569   -2.9998   -3.4916 F         1 <0>        -0.1326
     29 C19        -1.9168    0.2778    2.3230 C.2       1 <0>         0.6073
     30 O6         -0.7453    0.3233    2.6449 O.2       1 <0>        -0.5130
     31 N3         -2.8504    0.8732    3.0914 N.am      1 <0>        -0.7102
     32 C20        -2.4535    1.5751    4.3145 C.3       1 <0>         0.1729
     33 C21        -3.6761    2.1475    4.9844 C.ar      1 <0>         0.1049
     34 C22        -4.2990    1.4358    5.9924 C.ar      1 <0>        -0.1515
     35 C23        -5.4230    1.9712    6.6021 C.ar      1 <0>        -0.0756
     36 C24        -5.8804    3.2081    6.1732 C.ar      1 <0>        -0.1654
     37 C25        -5.2056    3.8612    5.1596 C.ar      1 <0>         0.1003
     38 N4         -4.1360    3.3238    4.6059 N.ar      1 <0>        -0.4683
     39 H3          1.6809   -2.3965    0.0349 H         1 <0>         0.0581
     40 H4          0.2575   -3.0061    0.9126 H         1 <0>         0.0507
     41 H5          0.2116   -2.8529   -0.8601 H         1 <0>         0.0650
     42 H6          0.3855   -0.5667    1.1536 H         1 <0>         0.1073
     43 H7          0.3252   -0.5635   -1.8979 H         1 <0>         0.0549
     44 H8          0.2049    0.8833   -0.8681 H         1 <0>         0.0513
     45 H9          1.7000   -0.0826   -0.8748 H         1 <0>         0.0627
     46 H10        -2.6451   -1.0389   -3.4020 H         1 <0>         0.0559
     47 H11        -0.9647   -0.5951   -3.0179 H         1 <0>         0.0763
     48 H12        -1.9236   -1.0956   -5.8891 H         1 <0>         0.0659
     49 H13        -0.2931   -0.6478   -5.3330 H         1 <0>         0.0788
     50 H14        -0.9612   -1.0957   -8.2940 H         1 <0>         0.0568
     51 H15         0.6028   -0.6479   -7.5716 H         1 <0>         0.0622
     52 H16        -2.1151   -3.0388   -7.3607 H         1 <0>         0.3504
     53 H17        -2.9941   -3.0091   -4.8072 H         1 <0>         0.3630
     54 H18        -5.7378    0.0192   -0.9095 H         1 <0>         0.1421
     55 H19        -7.6758   -0.7203   -2.2338 H         1 <0>         0.1455
     56 H20        -5.6710   -4.3802   -3.1347 H         1 <0>         0.1510
     57 H21        -3.7250   -3.6412   -1.8219 H         1 <0>         0.1513
     58 H22        -3.7850    0.8369    2.8346 H         1 <0>         0.4086
     59 H23        -1.9620    0.8762    4.9913 H         1 <0>         0.0899
     60 H24        -1.7654    2.3823    4.0632 H         1 <0>         0.0916
     61 H25        -3.9152    0.4746    6.3008 H         1 <0>         0.1388
     62 H26        -5.9305    1.4376    7.3921 H         1 <0>         0.1378
     63 H27        -6.7534    3.6552    6.6255 H         1 <0>         0.1376
     64 H28        -5.5555    4.8248    4.8199 H         1 <0>         0.1591
@<TRIPOS>BOND
     1    1    2 1
     2    1   39 1
     3    1   40 1
     4    1   41 1
     5    2    3 1
     6    2    4 1
     7    2   42 1
     8    3   43 1
     9    3   44 1
    10    3   45 1
    11    4    8 2
    12    4    5 1
    13    5    6 2
    14    5   29 1
    15    6    7 1
    16    7    8 1
    17    7   22 1
    18    8    9 1
    19    9   10 1
    20   10   11 1
    21   10   46 1
    22   10   47 1
    23   11   12 1
    24   11   13 1
    25   11   21 1
    26   13   14 1
    27   13   48 1
    28   13   49 1
    29   14   15 1
    30   14   16 1
    31   14   20 1
    32   16   17 1
    33   16   50 1
    34   16   51 1
    35   17   18 2
    36   17   19 1
    37   20   52 1
    38   21   53 1
    39   22   27 ar
    40   22   23 ar
    41   23   24 ar
    42   23   54 1
    43   24   25 ar
    44   24   55 1
    45   25   26 ar
    46   25   28 1
    47   26   27 ar
    48   26   56 1
    49   27   57 1
    50   29   30 2
    51   29   31 am
    52   31   32 1
    53   31   58 1
    54   32   33 1
    55   32   59 1
    56   32   60 1
    57   33   38 ar
    58   33   34 ar
    59   34   35 ar
    60   34   61 1
    61   35   36 ar
    62   35   62 1
    63   36   37 ar
    64   36   63 1
    65   37   38 ar
    66   37   64 1
@<TRIPOS>MOLECULE
CHEMBL235712
   61    63     0     0     0
SMALL
USER_CHARGES

@<TRIPOS>ATOM
      1 C1         -0.0187    1.5258    0.0104 C.3       1 <0>        -0.1679
      2 C2          0.0021   -0.0041    0.0020 C.3       1 <0>         0.1168
      3 C3          0.7421   -0.5109    1.2415 C.3       1 <0>        -0.1680
      4 N1         -1.3723   -0.5112    0.0124 N.pl3     1 <0>        -0.3991
      5 C4         -1.9255   -1.3012   -0.9417 C.2       1 <0>         0.0882
      6 C5         -3.2154   -1.5745   -0.5996 C.2       1 <0>        -0.0966
      7 C6         -3.4762   -0.9188    0.6327 C.2       1 <0>        -0.0330
      8 C7         -2.3030   -0.2668    0.9928 C.2       1 <0>         0.0693
      9 C8         -2.1017    0.5209    2.1716 C.1       1 <0>         0.2869
     10 N2         -1.9420    1.1457    3.1068 N.1       1 <0>        -0.4063
     11 C9         -4.7480   -0.9318    1.3889 C.ar      1 <0>         0.1976
     12 C10        -4.8466   -0.2279    2.5895 C.ar      1 <0>        -0.1753
     13 C11        -6.0424   -0.2497    3.2848 C.ar      1 <0>        -0.0697
     14 C12        -7.1026   -0.9748    2.7580 C.ar      1 <0>        -0.1775
     15 C13        -6.9357   -1.6497    1.5628 C.ar      1 <0>         0.1080
     16 N3         -5.7882   -1.6088    0.9169 N.ar      1 <0>        -0.4578
     17 C14        -4.1720   -2.4038   -1.3726 C.ar      1 <0>        -0.0004
     18 C15        -4.5931   -1.9911   -2.6354 C.ar      1 <0>        -0.0794
     19 C16        -5.4831   -2.7657   -3.3509 C.ar      1 <0>        -0.1542
     20 C17        -5.9580   -3.9520   -2.8158 C.ar      1 <0>         0.0956
     21 C18        -5.5425   -4.3660   -1.5607 C.ar      1 <0>        -0.1534
     22 C19        -4.6479   -3.6008   -0.8407 C.ar      1 <0>        -0.0443
     23 F1         -6.8293   -4.7073   -3.5198 F         1 <0>        -0.1443
     24 C20        -1.2257   -1.7964   -2.1810 C.3       1 <0>        -0.0561
     25 C21        -0.5498   -3.1365   -1.8841 C.3       1 <0>        -0.1459
     26 C22         0.1607   -3.6393   -3.1423 C.3       1 <0>         0.1137
     27 H1         -0.5501   -3.6844   -3.9675 H         1 <0>         0.0999
     28 C23         0.7303   -5.0354   -2.8830 C.3       1 <0>        -0.1866
     29 C24         1.3314   -5.5894   -4.1763 C.3       1 <0>         0.1374
     30 H2          0.5797   -5.5663   -4.9653 H         1 <0>         0.0932
     31 C25         1.7885   -7.0317   -3.9494 C.3       1 <0>        -0.2194
     32 C26         2.2671   -7.6179   -5.2526 C.2       1 <0>         0.4903
     33 O1          2.2447   -6.9445   -6.2687 O.co2     1 <0>        -0.6811
     34 O2          2.6768   -8.7656   -5.2909 O.co2     1 <0>        -0.7134
     35 O3          2.4513   -4.7898   -4.5618 O.3       1 <0>        -0.5281
     36 O4          1.2242   -2.7458   -3.4780 O.3       1 <0>        -0.5419
     37 H3          1.0039    1.9031    0.0027 H         1 <0>         0.0837
     38 H4         -0.5459    1.8868   -0.8726 H         1 <0>         0.0713
     39 H5         -0.5289    1.8773    0.9072 H         1 <0>         0.0599
     40 H6          0.5123   -0.3556   -0.8948 H         1 <0>         0.1186
     41 H7          0.2319   -0.1594    2.1383 H         1 <0>         0.0600
     42 H8          0.7568   -1.6008    1.2356 H         1 <0>         0.0714
     43 H9          1.7647   -0.1336    1.2338 H         1 <0>         0.0839
     44 H10        -4.0014    0.3259    2.9707 H         1 <0>         0.1292
     45 H11        -6.1487    0.2852    4.2170 H         1 <0>         0.1332
     46 H12        -8.0489   -1.0117    3.2772 H         1 <0>         0.1343
     47 H13        -7.7589   -2.2145    1.1508 H         1 <0>         0.1576
     48 H14        -4.2237   -1.0663   -3.0532 H         1 <0>         0.1281
     49 H15        -5.8102   -2.4465   -4.3294 H         1 <0>         0.1320
     50 H16        -5.9158   -5.2912   -1.1471 H         1 <0>         0.1305
     51 H17        -4.3206   -3.9268    0.1355 H         1 <0>         0.1237
     52 H18        -1.9535   -1.9261   -2.9820 H         1 <0>         0.0963
     53 H19        -0.4731   -1.0701   -2.4881 H         1 <0>         0.0843
     54 H20         0.1780   -3.0068   -1.0831 H         1 <0>         0.0624
     55 H21        -1.3024   -3.8628   -1.5770 H         1 <0>         0.0783
     56 H22         1.5052   -4.9755   -2.1187 H         1 <0>         0.0613
     57 H23        -0.0670   -5.6954   -2.5410 H         1 <0>         0.0747
     58 H24         2.6023   -7.0452   -3.2244 H         1 <0>         0.0555
     59 H25         0.9542   -7.6219   -3.5702 H         1 <0>         0.0611
     60 H26         3.1609   -4.7643   -3.9054 H         1 <0>         0.3491
     61 H27         1.8955   -2.6564   -2.7877 H         1 <0>         0.3628
@<TRIPOS>BOND
     1    1    2 1
     2    1   37 1
     3    1   38 1
     4    1   39 1
     5    2    3 1
     6    2    4 1
     7    2   40 1
     8    3   41 1
     9    3   42 1
    10    3   43 1
    11    4    8 1
    12    4    5 1
    13    5    6 2
    14    5   24 1
    15    6    7 1
    16    6   17 1
    17    7    8 2
    18    7   11 1
    19    8    9 1
    20    9   10 3
    21   11   16 ar
    22   11   12 ar
    23   12   13 ar
    24   12   44 1
    25   13   14 ar
    26   13   45 1
    27   14   15 ar
    28   14   46 1
    29   15   16 ar
    30   15   47 1
    31   17   22 ar
    32   17   18 ar
    33   18   19 ar
    34   18   48 1
    35   19   20 ar
    36   19   49 1
    37   20   21 ar
    38   20   23 1
    39   21   22 ar
    40   21   50 1
    41   22   51 1
    42   24   25 1
    43   24   52 1
    44   24   53 1
    45   25   26 1
    46   25   54 1
    47   25   55 1
    48   26   27 1
    49   26   28 1
    50   26   36 1
    51   28   29 1
    52   28   56 1
    53   28   57 1
    54   29   30 1
    55   29   31 1
    56   29   35 1
    57   31   32 1
    58   31   58 1
    59   31   59 1
    60   32   33 2
    61   32   34 1
    62   35   60 1
    63   36   61 1
@<TRIPOS>MOLECULE
CHEMBL317576
   62    64     0     0     0
SMALL
USER_CHARGES

@<TRIPOS>ATOM
      1 C1          1.2059   -0.6379    0.0415 C.ar      1 <0>        -0.0856
      2 C2          2.3825    0.0868    0.0239 C.ar      1 <0>        -0.1481
      3 C3          2.3425    1.4691   -0.0444 C.ar      1 <0>         0.0998
      4 C4          1.1235    2.1237   -0.0949 C.ar      1 <0>        -0.1462
      5 C5         -0.0518    1.3969   -0.0772 C.ar      1 <0>        -0.0843
      6 C6         -0.0107    0.0168   -0.0090 C.ar      1 <0>        -0.0915
      7 C7         -1.2930   -0.7747    0.0103 C.3       1 <0>        -0.0036
      8 C8         -1.2698   -1.7547    1.1850 C.3       1 <0>        -0.1073
      9 C9         -1.2564   -0.9736    2.5005 C.3       1 <0>         0.0580
     10 O1         -1.2348   -1.8890    3.5977 O.3       1 <0>        -0.3104
     11 C10        -1.2207   -1.3541    4.8475 C.ar      1 <0>         0.1247
     12 C11        -1.2333    0.0229    5.0134 C.ar      1 <0>        -0.1786
     13 C12        -1.2189    0.5651    6.2840 C.ar      1 <0>        -0.1103
     14 C13        -1.1915   -0.2654    7.3914 C.ar      1 <0>         0.0573
     15 C14        -1.1785   -1.6401    7.2273 C.ar      1 <0>        -0.1139
     16 C15        -1.1995   -2.1850    5.9579 C.ar      1 <0>        -0.1253
     17 F1         -1.1770    0.2661    8.6334 F         1 <0>        -0.1415
     18 C16        -1.4300   -1.5406   -1.2803 C.ar      1 <0>        -0.0685
     19 C17        -0.5446   -2.5595   -1.5768 C.ar      1 <0>        -0.0893
     20 C18        -0.6691   -3.2629   -2.7614 C.ar      1 <0>        -0.0289
     21 C19        -1.6803   -2.9482   -3.6523 C.ar      1 <0>        -0.0914
     22 C20        -2.5679   -1.9300   -3.3596 C.ar      1 <0>        -0.0446
     23 C21        -2.4478   -1.2272   -2.1682 C.ar      1 <0>         0.1235
     24 O2         -3.3230   -0.2290   -1.8755 O.3       1 <0>        -0.3090
     25 C22        -2.9775    1.0862   -2.3147 C.3       1 <0>         0.0305
     26 C23        -4.0741    2.0680   -1.8970 C.3       1 <0>         0.1187
     27 C24        -3.7667    3.4514   -2.4736 C.3       1 <0>        -0.1848
     28 C25        -4.9240    4.4025   -2.1618 C.3       1 <0>         0.1399
     29 H1         -5.8557    3.9746   -2.5319 H         1 <0>         0.0956
     30 C26        -4.6750    5.7493   -2.8437 C.3       1 <0>        -0.2192
     31 C27        -5.8702    6.6443   -2.6393 C.2       1 <0>         0.4905
     32 O3         -6.8319    6.2421   -2.0070 O.co2     1 <0>        -0.6800
     33 O4         -5.8754    7.7705   -3.1064 O.co2     1 <0>        -0.7121
     34 O5         -5.0159    4.5937   -0.7487 O.3       1 <0>        -0.5259
     35 O6         -4.1250    2.1467   -0.4711 O.3       1 <0>        -0.5282
     36 Cl1        -3.8360   -1.5349   -4.4774 Cl        1 <0>        -0.0363
     37 Cl2         0.4450   -4.5418   -3.1313 Cl        1 <0>        -0.0539
     38 F2          3.4921    2.1786   -0.0612 F         1 <0>        -0.1385
     39 H2          1.2369   -1.7164    0.0903 H         1 <0>         0.1327
     40 H3          3.3327   -0.4249    0.0638 H         1 <0>         0.1366
     41 H4          1.0911    3.2019   -0.1478 H         1 <0>         0.1394
     42 H5         -1.0028    1.9073   -0.1162 H         1 <0>         0.1336
     43 H6         -2.1379   -0.0949    0.1208 H         1 <0>         0.1129
     44 H7         -2.1562   -2.3879    1.1474 H         1 <0>         0.0874
     45 H8         -0.3765   -2.3761    1.1222 H         1 <0>         0.0793
     46 H9         -0.3700   -0.3404    2.5381 H         1 <0>         0.0672
     47 H10        -2.1498   -0.3523    2.5633 H         1 <0>         0.0710
     48 H11        -1.2540    0.6710    4.1497 H         1 <0>         0.1392
     49 H12        -1.2287    1.6373    6.4135 H         1 <0>         0.1391
     50 H13        -1.1567   -2.2868    8.0920 H         1 <0>         0.1415
     51 H14        -1.1943   -3.2575    5.8302 H         1 <0>         0.1407
     52 H15         0.2455   -2.8065   -0.8832 H         1 <0>         0.1440
     53 H16        -1.7757   -3.4983   -4.5768 H         1 <0>         0.1487
     54 H17        -2.0317    1.3837   -1.8618 H         1 <0>         0.0586
     55 H18        -2.8784    1.0925   -3.4002 H         1 <0>         0.0651
     56 H19        -5.0355    1.7216   -2.2763 H         1 <0>         0.1099
     57 H20        -2.8500    3.8359   -2.0265 H         1 <0>         0.0660
     58 H21        -3.6401    3.3750   -3.5535 H         1 <0>         0.0780
     59 H22        -3.7917    6.2182   -2.4102 H         1 <0>         0.0569
     60 H23        -4.5166    5.5926   -3.9106 H         1 <0>         0.0617
     61 H24        -4.2202    4.9724   -0.3505 H         1 <0>         0.3497
     62 H25        -3.3015    2.4489   -0.0642 H         1 <0>         0.3595
@<TRIPOS>BOND
     1    1    6 ar
     2    1    2 ar
     3    1   39 1
     4    2    3 ar
     5    2   40 1
     6    3    4 ar
     7    3   38 1
     8    4    5 ar
     9    4   41 1
    10    5    6 ar
    11    5   42 1
    12    6    7 1
    13    7    8 1
    14    7   18 1
    15    7   43 1
    16    8    9 1
    17    8   44 1
    18    8   45 1
    19    9   10 1
    20    9   46 1
    21    9   47 1
    22   10   11 1
    23   11   16 ar
    24   11   12 ar
    25   12   13 ar
    26   12   48 1
    27   13   14 ar
    28   13   49 1
    29   14   15 ar
    30   14   17 1
    31   15   16 ar
    32   15   50 1
    33   16   51 1
    34   18   23 ar
    35   18   19 ar
    36   19   20 ar
    37   19   52 1
    38   20   21 ar
    39   20   37 1
    40   21   22 ar
    41   21   53 1
    42   22   23 ar
    43   22   36 1
    44   23   24 1
    45   24   25 1
    46   25   26 1
    47   25   54 1
    48   25   55 1
    49   26   27 1
    50   26   35 1
    51   26   56 1
    52   27   28 1
    53   27   57 1
    54   27   58 1
    55   28   29 1
    56   28   30 1
    57   28   34 1
    58   30   31 1
    59   30   59 1
    60   30   60 1
    61   31   32 2
    62   31   33 1
    63   34   61 1
    64   35   62 1
@<TRIPOS>MOLECULE
CHEMBL317576__1
   62    64     0     0     0
SMALL
USER_CHARGES

@<TRIPOS>ATOM
      1 C1          1.2058   -0.6370    0.0401 C.ar      1 <0>        -0.0853
      2 C2          2.3821    0.0882    0.0222 C.ar      1 <0>        -0.1486
      3 C3          2.3416    1.4706   -0.0451 C.ar      1 <0>         0.1001
      4 C4          1.1223    2.1248   -0.0945 C.ar      1 <0>        -0.1460
      5 C5         -0.0527    1.3975   -0.0765 C.ar      1 <0>        -0.0844
      6 C6         -0.0110    0.0173   -0.0093 C.ar      1 <0>        -0.0929
      7 C7         -1.2930   -0.7747    0.0103 C.3       1 <0>        -0.0030
      8 C8         -1.2692   -1.7547    1.1849 C.3       1 <0>        -0.1076
      9 C9         -1.2558   -0.9737    2.5005 C.3       1 <0>         0.0575
     10 O1         -1.2335   -1.8891    3.5976 O.3       1 <0>        -0.3102
     11 C10        -1.2193   -1.3543    4.8474 C.ar      1 <0>         0.1243
     12 C11        -1.2324    0.0227    5.0134 C.ar      1 <0>        -0.1788
     13 C12        -1.2179    0.5648    6.2840 C.ar      1 <0>        -0.1101
     14 C13        -1.1899   -0.2657    7.3914 C.ar      1 <0>         0.0577
     15 C14        -1.1764   -1.6404    7.2272 C.ar      1 <0>        -0.1139
     16 C15        -1.1975   -2.1853    5.9578 C.ar      1 <0>        -0.1252
     17 F1         -1.1753    0.2658    8.6334 F         1 <0>        -0.1414
     18 C16        -1.4300   -1.5406   -1.2803 C.ar      1 <0>        -0.0691
     19 C17        -0.5446   -2.5595   -1.5768 C.ar      1 <0>        -0.0890
     20 C18        -0.6691   -3.2629   -2.7614 C.ar      1 <0>        -0.0288
     21 C19        -1.6803   -2.9482   -3.6523 C.ar      1 <0>        -0.0919
     22 C20        -2.5679   -1.9300   -3.3596 C.ar      1 <0>        -0.0435
     23 C21        -2.4478   -1.2272   -2.1682 C.ar      1 <0>         0.1234
     24 O2         -3.3230   -0.2290   -1.8755 O.3       1 <0>        -0.3088
     25 C22        -2.9775    1.0862   -2.3147 C.3       1 <0>         0.0308
     26 C23        -4.0741    2.0680   -1.8970 C.3       1 <0>         0.1174
     27 C24        -3.6471    3.4926   -2.2563 C.3       1 <0>        -0.1845
     28 C25        -4.6851    4.4847   -1.7277 C.3       1 <0>         0.1377
     29 H1         -5.6705    4.2171   -2.1090 H         1 <0>         0.1048
     30 C26        -4.3242    5.8967   -2.1933 C.3       1 <0>        -0.2183
     31 C27        -5.4100    6.8555   -1.7776 C.2       1 <0>         0.4903
     32 O3         -6.3823    6.4473   -1.1657 O.co2     1 <0>        -0.6796
     33 O4         -5.3162    8.0395   -2.0532 O.co2     1 <0>        -0.7118
     34 O5         -4.6996    4.4432   -0.2994 O.3       1 <0>        -0.5391
     35 O6         -5.2867    1.7471   -2.5817 O.3       1 <0>        -0.5411
     36 Cl1        -3.8360   -1.5349   -4.4774 Cl        1 <0>        -0.0355
     37 Cl2         0.4450   -4.5418   -3.1313 Cl        1 <0>        -0.0539
     38 F2          3.4909    2.1806   -0.0622 F         1 <0>        -0.1385
     39 H2          1.2373   -1.7154    0.0881 H         1 <0>         0.1326
     40 H3          3.3326   -0.4231    0.0611 H         1 <0>         0.1365
     41 H4          1.0894    3.2030   -0.1467 H         1 <0>         0.1398
     42 H5         -1.0039    1.9075   -0.1146 H         1 <0>         0.1361
     43 H6         -2.1381   -0.0953    0.1210 H         1 <0>         0.1094
     44 H7         -2.1553   -2.3883    1.1475 H         1 <0>         0.0876
     45 H8         -0.3756   -2.3757    1.1219 H         1 <0>         0.0803
     46 H9         -0.3696   -0.3402    2.5379 H         1 <0>         0.0679
     47 H10        -2.1493   -0.3527    2.5635 H         1 <0>         0.0699
     48 H11        -1.2535    0.6708    4.1497 H         1 <0>         0.1391
     49 H12        -1.2281    1.6370    6.4136 H         1 <0>         0.1394
     50 H13        -1.1542   -2.2871    8.0919 H         1 <0>         0.1415
     51 H14        -1.1919   -3.2577    5.8301 H         1 <0>         0.1407
     52 H15         0.2455   -2.8065   -0.8832 H         1 <0>         0.1442
     53 H16        -1.7757   -3.4983   -4.5768 H         1 <0>         0.1485
     54 H17        -2.0317    1.3837   -1.8618 H         1 <0>         0.0642
     55 H18        -2.8784    1.0925   -3.4002 H         1 <0>         0.0594
     56 H19        -4.2347    1.9971   -0.8212 H         1 <0>         0.1149
     57 H20        -2.6780    3.7060   -1.8054 H         1 <0>         0.0708
     58 H21        -3.5726    3.5873   -3.3396 H         1 <0>         0.0735
     59 H22        -3.3800    6.1985   -1.7401 H         1 <0>         0.0568
     60 H23        -4.2261    5.9074   -3.2788 H         1 <0>         0.0623
     61 H24        -3.8533    4.6708    0.1093 H         1 <0>         0.3529
     62 H25        -5.2174    1.7898   -3.5453 H         1 <0>         0.3685
@<TRIPOS>BOND
     1    1    6 ar
     2    1    2 ar
     3    1   39 1
     4    2    3 ar
     5    2   40 1
     6    3    4 ar
     7    3   38 1
     8    4    5 ar
     9    4   41 1
    10    5    6 ar
    11    5   42 1
    12    6    7 1
    13    7    8 1
    14    7   18 1
    15    7   43 1
    16    8    9 1
    17    8   44 1
    18    8   45 1
    19    9   10 1
    20    9   46 1
    21    9   47 1
    22   10   11 1
    23   11   16 ar
    24   11   12 ar
    25   12   13 ar
    26   12   48 1
    27   13   14 ar
    28   13   49 1
    29   14   15 ar
    30   14   17 1
    31   15   16 ar
    32   15   50 1
    33   16   51 1
    34   18   23 ar
    35   18   19 ar
    36   19   20 ar
    37   19   52 1
    38   20   21 ar
    39   20   37 1
    40   21   22 ar
    41   21   53 1
    42   22   23 ar
    43   22   36 1
    44   23   24 1
    45   24   25 1
    46   25   26 1
    47   25   54 1
    48   25   55 1
    49   26   27 1
    50   26   35 1
    51   26   56 1
    52   27   28 1
    53   27   57 1
    54   27   58 1
    55   28   29 1
    56   28   30 1
    57   28   34 1
    58   30   31 1
    59   30   59 1
    60   30   60 1
    61   31   32 2
    62   31   33 1
    63   34   61 1
    64   35   62 1
@<TRIPOS>MOLECULE
CHEMBL317576__2
   62    64     0     0     0
SMALL
USER_CHARGES

@<TRIPOS>ATOM
      1 C1         -0.3832    1.5199    0.4238 C.ar      1 <0>        -0.0738
      2 C2          0.6728    2.4009    0.5602 C.ar      1 <0>        -0.1489
      3 C3          1.9742    1.9461    0.4312 C.ar      1 <0>         0.0986
      4 C4          2.2160    0.6089    0.1657 C.ar      1 <0>        -0.1518
      5 C5          1.1584   -0.2702    0.0297 C.ar      1 <0>        -0.0870
      6 C6         -0.1406    0.1850    0.1587 C.ar      1 <0>        -0.0898
      7 C7         -1.2930   -0.7747    0.0103 C.3       1 <0>        -0.0013
      8 C8         -1.1437   -1.5522   -1.2989 C.3       1 <0>        -0.1115
      9 C9         -1.2646   -0.5885   -2.4811 C.3       1 <0>         0.0581
     10 O1         -1.1252   -1.3147   -3.7039 O.3       1 <0>        -0.3105
     11 C10        -1.2084   -0.6015   -4.8582 C.ar      1 <0>         0.1237
     12 C11        -1.4141    0.7696   -4.8138 C.ar      1 <0>        -0.1787
     13 C12        -1.4984    1.4931   -5.9876 C.ar      1 <0>        -0.1103
     14 C13        -1.3781    0.8504   -7.2080 C.ar      1 <0>         0.0584
     15 C14        -1.1732   -0.5182   -7.2538 C.ar      1 <0>        -0.1136
     16 C15        -1.0819   -1.2432   -6.0814 C.ar      1 <0>        -0.1248
     17 F1         -1.4612    1.5591   -8.3552 F         1 <0>        -0.1411
     18 C16        -1.2968   -1.7381    1.1691 C.ar      1 <0>        -0.0692
     19 C17        -0.2656   -2.6462    1.3165 C.ar      1 <0>        -0.0894
     20 C18        -0.2684   -3.5313    2.3796 C.ar      1 <0>        -0.0290
     21 C19        -1.3036   -3.5098    3.2978 C.ar      1 <0>        -0.0914
     22 C20        -2.3369   -2.6032    3.1540 C.ar      1 <0>        -0.0448
     23 C21        -2.3322   -1.7101    2.0909 C.ar      1 <0>         0.1239
     24 O2         -3.3446   -0.8138    1.9504 O.3       1 <0>        -0.3090
     25 C22        -4.4756   -1.2278    1.1813 C.3       1 <0>         0.0317
     26 C23        -5.5032   -0.0952    1.1351 C.3       1 <0>         0.1196
     27 C24        -6.7651   -0.5803    0.4188 C.3       1 <0>        -0.1850
     28 C25        -7.8379    0.5087    0.4817 C.3       1 <0>         0.1399
     29 H1         -8.0090    0.7906    1.5206 H         1 <0>         0.0954
     30 C26        -9.1390   -0.0215   -0.1238 C.3       1 <0>        -0.2192
     31 C27       -10.2284    1.0054    0.0485 C.2       1 <0>         0.4904
     32 O3         -9.9865    2.0634    0.6042 O.co2     1 <0>        -0.6803
     33 O4        -11.3517    0.7783   -0.3677 O.co2     1 <0>        -0.7121
     34 O5         -7.4002    1.6516   -0.2560 O.3       1 <0>        -0.5263
     35 O6         -4.9530    1.0186    0.4289 O.3       1 <0>        -0.5298
     36 Cl1        -3.6358   -2.5765    4.3055 Cl        1 <0>        -0.0364
     37 Cl2         1.0282   -4.6712    2.5618 Cl        1 <0>        -0.0539
     38 F2          3.0073    2.8066    0.5639 F         1 <0>        -0.1402
     39 H2         -1.3982    1.8736    0.5288 H         1 <0>         0.1418
     40 H3          0.4830    3.4438    0.7670 H         1 <0>         0.1380
     41 H4          3.2306    0.2531    0.0645 H         1 <0>         0.1352
     42 H5          1.3467   -1.3132   -0.1777 H         1 <0>         0.1310
     43 H6         -2.2300   -0.2180   -0.0026 H         1 <0>         0.1098
     44 H7         -0.1680   -2.0375   -1.3241 H         1 <0>         0.0814
     45 H8         -1.9269   -2.3075   -1.3643 H         1 <0>         0.0838
     46 H9         -2.2404   -0.1032   -2.4559 H         1 <0>         0.0687
     47 H10        -0.4815    0.1668   -2.4158 H         1 <0>         0.0690
     48 H11        -1.5086    1.2711   -3.8620 H         1 <0>         0.1392
     49 H12        -1.6585    2.5607   -5.9533 H         1 <0>         0.1393
     50 H13        -1.0800   -1.0184   -8.2064 H         1 <0>         0.1417
     51 H14        -0.9172   -2.3100   -6.1173 H         1 <0>         0.1407
     52 H15         0.5431   -2.6650    0.6010 H         1 <0>         0.1441
     53 H16        -1.3042   -4.2019    4.1269 H         1 <0>         0.1487
     54 H17        -4.1566   -1.4705    0.1677 H         1 <0>         0.0576
     55 H18        -4.9253   -2.1078    1.6412 H         1 <0>         0.0657
     56 H19        -5.7559    0.2078    2.1512 H         1 <0>         0.1094
     57 H20        -6.5302   -0.7993   -0.6228 H         1 <0>         0.0663
     58 H21        -7.1347   -1.4830    0.9054 H         1 <0>         0.0779
     59 H22        -8.9914   -0.2199   -1.1854 H         1 <0>         0.0570
     60 H23        -9.4257   -0.9437    0.3817 H         1 <0>         0.0617
     61 H24        -7.2283    1.4741   -1.1909 H         1 <0>         0.3500
     62 H25        -4.7046    0.8213   -0.4846 H         1 <0>         0.3613
@<TRIPOS>BOND
     1    1    6 ar
     2    1    2 ar
     3    1   39 1
     4    2    3 ar
     5    2   40 1
     6    3    4 ar
     7    3   38 1
     8    4    5 ar
     9    4   41 1
    10    5    6 ar
    11    5   42 1
    12    6    7 1
    13    7    8 1
    14    7   18 1
    15    7   43 1
    16    8    9 1
    17    8   44 1
    18    8   45 1
    19    9   10 1
    20    9   46 1
    21    9   47 1
    22   10   11 1
    23   11   16 ar
    24   11   12 ar
    25   12   13 ar
    26   12   48 1
    27   13   14 ar
    28   13   49 1
    29   14   15 ar
    30   14   17 1
    31   15   16 ar
    32   15   50 1
    33   16   51 1
    34   18   23 ar
    35   18   19 ar
    36   19   20 ar
    37   19   52 1
    38   20   21 ar
    39   20   37 1
    40   21   22 ar
    41   21   53 1
    42   22   23 ar
    43   22   36 1
    44   23   24 1
    45   24   25 1
    46   25   26 1
    47   25   54 1
    48   25   55 1
    49   26   27 1
    50   26   35 1
    51   26   56 1
    52   27   28 1
    53   27   57 1
    54   27   58 1
    55   28   29 1
    56   28   30 1
    57   28   34 1
    58   30   31 1
    59   30   59 1
    60   30   60 1
    61   31   32 2
    62   31   33 1
    63   34   61 1
    64   35   62 1
@<TRIPOS>MOLECULE
CHEMBL317576__3
   62    64     0     0     0
SMALL
USER_CHARGES

@<TRIPOS>ATOM
      1 C1         -0.3831    1.5199    0.4238 C.ar      1 <0>        -0.0753
      2 C2          0.6729    2.4009    0.5602 C.ar      1 <0>        -0.1483
      3 C3          1.9743    1.9460    0.4312 C.ar      1 <0>         0.0989
      4 C4          2.2160    0.6088    0.1656 C.ar      1 <0>        -0.1510
      5 C5          1.1584   -0.2703    0.0297 C.ar      1 <0>        -0.0863
      6 C6         -0.1405    0.1850    0.1587 C.ar      1 <0>        -0.0899
      7 C7         -1.2930   -0.7747    0.0103 C.3       1 <0>        -0.0016
      8 C8         -1.1438   -1.5522   -1.2990 C.3       1 <0>        -0.1110
      9 C9         -1.2647   -0.5885   -2.4811 C.3       1 <0>         0.0573
     10 O1         -1.1254   -1.3147   -3.7039 O.3       1 <0>        -0.3104
     11 C10        -1.2085   -0.6015   -4.8582 C.ar      1 <0>         0.1235
     12 C11        -1.4141    0.7696   -4.8138 C.ar      1 <0>        -0.1787
     13 C12        -1.4985    1.4932   -5.9876 C.ar      1 <0>        -0.1100
     14 C13        -1.3783    0.8504   -7.2080 C.ar      1 <0>         0.0586
     15 C14        -1.1734   -0.5182   -7.2538 C.ar      1 <0>        -0.1136
     16 C15        -1.0821   -1.2432   -6.0814 C.ar      1 <0>        -0.1247
     17 F1         -1.4614    1.5591   -8.3552 F         1 <0>        -0.1410
     18 C16        -1.2968   -1.7381    1.1691 C.ar      1 <0>        -0.0698
     19 C17        -0.2656   -2.6462    1.3165 C.ar      1 <0>        -0.0890
     20 C18        -0.2684   -3.5313    2.3796 C.ar      1 <0>        -0.0289
     21 C19        -1.3036   -3.5098    3.2978 C.ar      1 <0>        -0.0918
     22 C20        -2.3369   -2.6032    3.1540 C.ar      1 <0>        -0.0437
     23 C21        -2.3322   -1.7101    2.0909 C.ar      1 <0>         0.1239
     24 O2         -3.3446   -0.8138    1.9504 O.3       1 <0>        -0.3088
     25 C22        -4.4756   -1.2278    1.1813 C.3       1 <0>         0.0318
     26 C23        -5.5032   -0.0952    1.1351 C.3       1 <0>         0.1180
     27 C24        -6.6565   -0.4903    0.2107 C.3       1 <0>        -0.1847
     28 C25        -7.6210    0.6886    0.0659 C.3       1 <0>         0.1377
     29 H1         -7.9476    1.0142    1.0535 H         1 <0>         0.1047
     30 C26        -8.8365    0.2551   -0.7560 C.3       1 <0>        -0.2186
     31 C27        -9.8422    1.3767   -0.7952 C.2       1 <0>         0.4905
     32 O3         -9.6085    2.4255   -0.2192 O.co2     1 <0>        -0.6799
     33 O4        -10.8896    1.2353   -1.4030 O.co2     1 <0>        -0.7118
     34 O5         -6.9583    1.7676   -0.5964 O.3       1 <0>        -0.5396
     35 O6         -6.0077    0.1443    2.4505 O.3       1 <0>        -0.5415
     36 Cl1        -3.6358   -2.5765    4.3055 Cl        1 <0>        -0.0355
     37 Cl2         1.0282   -4.6712    2.5618 Cl        1 <0>        -0.0539
     38 F2          3.0074    2.8064    0.5638 F         1 <0>        -0.1398
     39 H2         -1.3981    1.8736    0.5288 H         1 <0>         0.1392
     40 H3          0.4831    3.4438    0.7669 H         1 <0>         0.1383
     41 H4          3.2307    0.2530    0.0644 H         1 <0>         0.1357
     42 H5          1.3467   -1.3133   -0.1778 H         1 <0>         0.1316
     43 H6         -2.2300   -0.2180   -0.0025 H         1 <0>         0.1074
     44 H7         -0.1681   -2.0375   -1.3241 H         1 <0>         0.0818
     45 H8         -1.9270   -2.3075   -1.3643 H         1 <0>         0.0845
     46 H9         -2.2404   -0.1032   -2.4559 H         1 <0>         0.0692
     47 H10        -0.4815    0.1668   -2.4158 H         1 <0>         0.0689
     48 H11        -1.5086    1.2711   -3.8620 H         1 <0>         0.1389
     49 H12        -1.6586    2.5607   -5.9533 H         1 <0>         0.1394
     50 H13        -1.0802   -1.0184   -8.2064 H         1 <0>         0.1418
     51 H14        -0.9174   -2.3100   -6.1173 H         1 <0>         0.1407
     52 H15         0.5431   -2.6650    0.6010 H         1 <0>         0.1443
     53 H16        -1.3042   -4.2019    4.1269 H         1 <0>         0.1485
     54 H17        -4.1566   -1.4705    0.1677 H         1 <0>         0.0636
     55 H18        -4.9253   -2.1078    1.6412 H         1 <0>         0.0601
     56 H19        -5.0288    0.8106    0.7574 H         1 <0>         0.1146
     57 H20        -6.2612   -0.7588   -0.7690 H         1 <0>         0.0713
     58 H21        -7.1863   -1.3432    0.6349 H         1 <0>         0.0734
     59 H22        -8.5213    0.0140   -1.7712 H         1 <0>         0.0570
     60 H23        -9.2901   -0.6238   -0.2980 H         1 <0>         0.0624
     61 H24        -6.6400    1.5488   -1.4829 H         1 <0>         0.3533
     62 H25        -6.4440   -0.6208    2.8497 H         1 <0>         0.3685
@<TRIPOS>BOND
     1    1    6 ar
     2    1    2 ar
     3    1   39 1
     4    2    3 ar
     5    2   40 1
     6    3    4 ar
     7    3   38 1
     8    4    5 ar
     9    4   41 1
    10    5    6 ar
    11    5   42 1
    12    6    7 1
    13    7    8 1
    14    7   18 1
    15    7   43 1
    16    8    9 1
    17    8   44 1
    18    8   45 1
    19    9   10 1
    20    9   46 1
    21    9   47 1
    22   10   11 1
    23   11   16 ar
    24   11   12 ar
    25   12   13 ar
    26   12   48 1
    27   13   14 ar
    28   13   49 1
    29   14   15 ar
    30   14   17 1
    31   15   16 ar
    32   15   50 1
    33   16   51 1
    34   18   23 ar
    35   18   19 ar
    36   19   20 ar
    37   19   52 1
    38   20   21 ar
    39   20   37 1
    40   21   22 ar
    41   21   53 1
    42   22   23 ar
    43   22   36 1
    44   23   24 1
    45   24   25 1
    46   25   26 1
    47   25   54 1
    48   25   55 1
    49   26   27 1
    50   26   35 1
    51   26   56 1
    52   27   28 1
    53   27   57 1
    54   27   58 1
    55   28   29 1
    56   28   30 1
    57   28   34 1
    58   30   31 1
    59   30   59 1
    60   30   60 1
    61   31   32 2
    62   31   33 1
    63   34   61 1
    64   35   62 1
@<TRIPOS>MOLECULE
CHEMBL155642
   60    62     0     0     0
SMALL
USER_CHARGES

@<TRIPOS>ATOM
      1 C1         -0.0187    1.5258    0.0104 C.3       1 <0>        -0.1409
      2 C2          0.0021   -0.0041    0.0020 C.3       1 <0>        -0.0459
      3 C3          0.7421   -0.5109    1.2415 C.3       1 <0>        -0.1386
      4 C4         -1.4117   -0.5257    0.0127 C.ar      1 <0>         0.1598
      5 C5         -1.8576   -1.3319   -1.0337 C.ar      1 <0>        -0.1037
      6 C6         -3.1839   -1.8095   -1.0036 C.ar      1 <0>         0.0098
      7 C7         -3.9878   -1.4482    0.0798 C.ar      1 <0>        -0.1603
      8 C8         -3.4601   -0.6455    1.0703 C.ar      1 <0>         0.1508
      9 N1         -2.2117   -0.2198    1.0131 N.ar      1 <0>        -0.4676
     10 C9         -4.3228   -0.2524    2.2417 C.3       1 <0>        -0.0194
     11 C10        -4.4754   -1.4464    3.1861 C.3       1 <0>        -0.1375
     12 C11        -3.6673    0.9097    2.9906 C.3       1 <0>        -0.1272
     13 C12        -5.7016    0.1787    1.7377 C.3       1 <0>        -0.1426
     14 C13        -3.7095   -2.6692   -2.0897 C.ar      1 <0>        -0.0639
     15 C14        -3.5481   -2.2901   -3.4221 C.ar      1 <0>        -0.0610
     16 C15        -4.0392   -3.0938   -4.4298 C.ar      1 <0>        -0.1521
     17 C16        -4.6925   -4.2760   -4.1200 C.ar      1 <0>         0.1077
     18 C17        -4.8554   -4.6569   -2.7976 C.ar      1 <0>        -0.1530
     19 C18        -4.3623   -3.8629   -1.7832 C.ar      1 <0>        -0.0745
     20 F1         -5.1726   -5.0595   -5.1104 F         1 <0>        -0.1367
     21 C19        -0.9585   -1.6784   -2.1521 C.2       1 <0>        -0.0877
     22 C20        -0.8275   -2.9434   -2.5305 C.2       1 <0>        -0.1465
     23 C21         0.0904   -3.2971   -3.6722 C.3       1 <0>         0.1457
     24 C22         1.1027   -4.3475   -3.2076 C.3       1 <0>        -0.1477
     25 C23         2.0599   -4.6742   -4.3583 C.3       1 <0>         0.1041
     26 H1          2.7902   -5.4125   -4.0274 H         1 <0>         0.0816
     27 C24         2.7834   -3.3894   -4.7815 C.3       1 <0>        -0.2046
     28 C25         1.7430   -2.3213   -5.0385 C.2       1 <0>         0.4978
     29 O1          1.7653   -1.6630   -6.0515 O.2       1 <0>        -0.4500
     30 O2          0.7901   -2.1248   -4.1040 O.3       1 <0>        -0.3688
     31 O3          1.3193   -5.1956   -5.4637 O.3       1 <0>        -0.5635
     32 H2          1.0039    1.9031    0.0027 H         1 <0>         0.0601
     33 H3         -0.5459    1.8868   -0.8726 H         1 <0>         0.0520
     34 H4         -0.5289    1.8773    0.9072 H         1 <0>         0.0658
     35 H5          0.5123   -0.3556   -0.8948 H         1 <0>         0.0874
     36 H6          0.2319   -0.1594    2.1383 H         1 <0>         0.0653
     37 H7          0.7568   -1.6008    1.2356 H         1 <0>         0.0508
     38 H8          1.7647   -0.1336    1.2338 H         1 <0>         0.0597
     39 H9         -5.0096   -1.7923    0.1413 H         1 <0>         0.1367
     40 H10        -3.4932   -1.7535    3.5452 H         1 <0>         0.0579
     41 H11        -5.0994   -1.1620    4.0334 H         1 <0>         0.0650
     42 H12        -4.9424   -2.2743    2.6526 H         1 <0>         0.0559
     43 H13        -3.5586    1.7603    2.3177 H         1 <0>         0.0552
     44 H14        -4.2913    1.1940    3.8378 H         1 <0>         0.0529
     45 H15        -2.6850    0.6025    3.3496 H         1 <0>         0.0653
     46 H16        -6.1686   -0.6492    1.2042 H         1 <0>         0.0583
     47 H17        -6.3256    0.4631    2.5849 H         1 <0>         0.0654
     48 H18        -5.5929    1.0293    1.0648 H         1 <0>         0.0577
     49 H19        -3.0396   -1.3686   -3.6644 H         1 <0>         0.1345
     50 H20        -3.9146   -2.8011   -5.4619 H         1 <0>         0.1388
     51 H21        -5.3656   -5.5789   -2.5610 H         1 <0>         0.1391
     52 H22        -4.4854   -4.1629   -0.7530 H         1 <0>         0.1345
     53 H23        -0.4074   -0.9023   -2.6623 H         1 <0>         0.1367
     54 H24        -1.3786   -3.7195   -2.0203 H         1 <0>         0.1322
     55 H25        -0.4956   -3.6967   -4.4998 H         1 <0>         0.0961
     56 H26         1.6698   -3.9573   -2.3625 H         1 <0>         0.0980
     57 H27         0.5752   -5.2523   -2.9053 H         1 <0>         0.0994
     58 H28         3.4534   -3.0657   -3.9850 H         1 <0>         0.1195
     59 H29         3.3549   -3.5723   -5.6914 H         1 <0>         0.1090
     60 H30         1.8640   -5.4244   -6.2292 H         1 <0>         0.3871
@<TRIPOS>BOND
     1    1    2 1
     2    1   32 1
     3    1   33 1
     4    1   34 1
     5    2    3 1
     6    2    4 1
     7    2   35 1
     8    3   36 1
     9    3   37 1
    10    3   38 1
    11    4    9 ar
    12    4    5 ar
    13    5    6 ar
    14    5   21 1
    15    6    7 ar
    16    6   14 1
    17    7    8 ar
    18    7   39 1
    19    8    9 ar
    20    8   10 1
    21   10   11 1
    22   10   12 1
    23   10   13 1
    24   11   40 1
    25   11   41 1
    26   11   42 1
    27   12   43 1
    28   12   44 1
    29   12   45 1
    30   13   46 1
    31   13   47 1
    32   13   48 1
    33   14   19 ar
    34   14   15 ar
    35   15   16 ar
    36   15   49 1
    37   16   17 ar
    38   16   50 1
    39   17   18 ar
    40   17   20 1
    41   18   19 ar
    42   18   51 1
    43   19   52 1
    44   21   22 2
    45   21   53 1
    46   22   23 1
    47   22   54 1
    48   23   30 1
    49   23   24 1
    50   23   55 1
    51   24   25 1
    52   24   56 1
    53   24   57 1
    54   25   26 1
    55   25   27 1
    56   25   31 1
    57   27   28 1
    58   27   58 1
    59   27   59 1
    60   28   29 2
    61   28   30 1
    62   31   60 1
@<TRIPOS>MOLECULE
CHEMBL155642__1
   60    62     0     0     0
SMALL
USER_CHARGES

@<TRIPOS>ATOM
      1 C1         -0.0187    1.5258    0.0104 C.3       1 <0>        -0.1416
      2 C2          0.0021   -0.0041    0.0020 C.3       1 <0>        -0.0451
      3 C3          0.7421   -0.5109    1.2415 C.3       1 <0>        -0.1400
      4 C4         -1.4117   -0.5257    0.0127 C.ar      1 <0>         0.1618
      5 C5         -1.8576   -1.3319   -1.0337 C.ar      1 <0>        -0.1098
      6 C6         -3.1839   -1.8095   -1.0036 C.ar      1 <0>         0.0183
      7 C7         -3.9878   -1.4482    0.0798 C.ar      1 <0>        -0.1617
      8 C8         -3.4601   -0.6455    1.0703 C.ar      1 <0>         0.1550
      9 N1         -2.2117   -0.2198    1.0131 N.ar      1 <0>        -0.4690
     10 C9         -4.3228   -0.2524    2.2417 C.3       1 <0>        -0.0200
     11 C10        -4.4754   -1.4464    3.1861 C.3       1 <0>        -0.1379
     12 C11        -3.6673    0.9097    2.9906 C.3       1 <0>        -0.1272
     13 C12        -5.7016    0.1787    1.7377 C.3       1 <0>        -0.1428
     14 C13        -3.7095   -2.6692   -2.0897 C.ar      1 <0>        -0.0687
     15 C14        -3.5481   -2.2901   -3.4221 C.ar      1 <0>        -0.0572
     16 C15        -4.0392   -3.0938   -4.4298 C.ar      1 <0>        -0.1399
     17 C16        -4.6925   -4.2760   -4.1200 C.ar      1 <0>         0.1094
     18 C17        -4.8554   -4.6569   -2.7976 C.ar      1 <0>        -0.1534
     19 C18        -4.3623   -3.8629   -1.7832 C.ar      1 <0>        -0.0750
     20 F1         -5.1726   -5.0595   -5.1104 F         1 <0>        -0.1374
     21 C19        -0.9585   -1.6784   -2.1521 C.2       1 <0>        -0.0834
     22 C20        -0.8275   -2.9434   -2.5305 C.2       1 <0>        -0.1327
     23 C21         0.0904   -3.2971   -3.6722 C.3       1 <0>         0.1445
     24 C22         1.1731   -4.2602   -3.1780 C.3       1 <0>        -0.1515
     25 C23         2.0793   -4.6501   -4.3502 C.3       1 <0>         0.1099
     26 H1          2.5530   -3.7572   -4.7581 H         1 <0>         0.0682
     27 C24         1.2265   -5.3204   -5.4348 C.3       1 <0>        -0.2055
     28 C25         0.0560   -4.4136   -5.7465 C.2       1 <0>         0.4915
     29 O1         -0.2263   -4.1331   -6.8873 O.2       1 <0>        -0.4458
     30 O2         -0.6633   -3.9274   -4.7139 O.3       1 <0>        -0.3585
     31 O3          3.0834   -5.5601   -3.8968 O.3       1 <0>        -0.5546
     32 H2          1.0039    1.9031    0.0027 H         1 <0>         0.0607
     33 H3         -0.5459    1.8868   -0.8726 H         1 <0>         0.0519
     34 H4         -0.5289    1.8773    0.9072 H         1 <0>         0.0667
     35 H5          0.5123   -0.3556   -0.8948 H         1 <0>         0.0847
     36 H6          0.2319   -0.1594    2.1383 H         1 <0>         0.0661
     37 H7          0.7568   -1.6008    1.2356 H         1 <0>         0.0520
     38 H8          1.7647   -0.1336    1.2338 H         1 <0>         0.0606
     39 H9         -5.0096   -1.7923    0.1413 H         1 <0>         0.1378
     40 H10        -3.4932   -1.7535    3.5452 H         1 <0>         0.0582
     41 H11        -5.0994   -1.1620    4.0334 H         1 <0>         0.0654
     42 H12        -4.9424   -2.2743    2.6526 H         1 <0>         0.0563
     43 H13        -3.5586    1.7603    2.3177 H         1 <0>         0.0552
     44 H14        -4.2913    1.1940    3.8378 H         1 <0>         0.0533
     45 H15        -2.6850    0.6025    3.3496 H         1 <0>         0.0654
     46 H16        -6.1686   -0.6492    1.2042 H         1 <0>         0.0586
     47 H17        -6.3256    0.4631    2.5849 H         1 <0>         0.0658
     48 H18        -5.5929    1.0293    1.0648 H         1 <0>         0.0578
     49 H19        -3.0396   -1.3686   -3.6644 H         1 <0>         0.1312
     50 H20        -3.9146   -2.8011   -5.4619 H         1 <0>         0.1376
     51 H21        -5.3656   -5.5789   -2.5610 H         1 <0>         0.1378
     52 H22        -4.4854   -4.1629   -0.7530 H         1 <0>         0.1331
     53 H23        -0.4074   -0.9023   -2.6623 H         1 <0>         0.1292
     54 H24        -1.3786   -3.7195   -2.0203 H         1 <0>         0.1256
     55 H25         0.5572   -2.3909   -4.0580 H         1 <0>         0.0838
     56 H26         1.7676   -3.7734   -2.4050 H         1 <0>         0.1005
     57 H27         0.7044   -5.1546   -2.7676 H         1 <0>         0.0925
     58 H28         1.8253   -5.4694   -6.3333 H         1 <0>         0.1080
     59 H29         0.8606   -6.2814   -5.0730 H         1 <0>         0.1182
     60 H30         3.6937   -5.8492   -4.5890 H         1 <0>         0.3862
@<TRIPOS>BOND
     1    1    2 1
     2    1   32 1
     3    1   33 1
     4    1   34 1
     5    2    3 1
     6    2    4 1
     7    2   35 1
     8    3   36 1
     9    3   37 1
    10    3   38 1
    11    4    9 ar
    12    4    5 ar
    13    5    6 ar
    14    5   21 1
    15    6    7 ar
    16    6   14 1
    17    7    8 ar
    18    7   39 1
    19    8    9 ar
    20    8   10 1
    21   10   11 1
    22   10   12 1
    23   10   13 1
    24   11   40 1
    25   11   41 1
    26   11   42 1
    27   12   43 1
    28   12   44 1
    29   12   45 1
    30   13   46 1
    31   13   47 1
    32   13   48 1
    33   14   19 ar
    34   14   15 ar
    35   15   16 ar
    36   15   49 1
    37   16   17 ar
    38   16   50 1
    39   17   18 ar
    40   17   20 1
    41   18   19 ar
    42   18   51 1
    43   19   52 1
    44   21   22 2
    45   21   53 1
    46   22   23 1
    47   22   54 1
    48   23   30 1
    49   23   24 1
    50   23   55 1
    51   24   25 1
    52   24   56 1
    53   24   57 1
    54   25   26 1
    55   25   27 1
    56   25   31 1
    57   27   28 1
    58   27   58 1
    59   27   59 1
    60   28   29 2
    61   28   30 1
    62   31   60 1
@<TRIPOS>MOLECULE
CHEMBL445123
   63    65     0     0     0
SMALL
USER_CHARGES

@<TRIPOS>ATOM
      1 C1          0.4783    0.8684    0.2921 C.3       1 <0>        -0.1550
      2 C2          0.1335   -0.6220    0.3183 C.3       1 <0>        -0.0278
      3 C3          0.5706   -1.2232    1.6556 C.3       1 <0>        -0.1528
      4 C4         -1.3540   -0.7966    0.1513 C.2       1 <0>         0.0824
      5 C5         -2.2977   -0.2958    0.9726 C.2       1 <0>        -0.1436
      6 C6         -3.5613   -0.6844    0.4648 C.2       1 <0>        -0.0770
      7 C7         -3.3239   -1.4278   -0.6792 C.2       1 <0>         0.0731
      8 N1         -1.9641   -1.4836   -0.8614 N.pl3     1 <0>        -0.3831
      9 C8         -1.3120   -2.1367   -1.9062 C.2       1 <0>         0.0449
     10 C9         -1.6201   -3.3856   -2.1977 C.2       1 <0>        -0.1747
     11 C10        -0.9152   -4.0916   -3.3272 C.3       1 <0>         0.1523
     12 H1         -1.6315   -4.3197   -4.1164 H         1 <0>         0.1162
     13 C11        -0.2962   -5.3912   -2.8089 C.3       1 <0>        -0.1800
     14 C12         0.3115   -6.1685   -3.9783 C.3       1 <0>         0.1250
     15 H2         -0.4477   -6.3241   -4.7448 H         1 <0>         0.1084
     16 C13         0.8194   -7.5234   -3.4811 C.3       1 <0>        -0.1504
     17 C14         1.3057   -8.3381   -4.6520 C.2       1 <0>         0.4555
     18 O1          1.2516   -7.8818   -5.7694 O.2       1 <0>        -0.4861
     19 O2          1.7990   -9.5705   -4.4534 O.3       1 <0>        -0.3592
     20 C15         2.2417  -10.2860   -5.6084 C.3       1 <0>         0.0336
     21 O3          1.4001   -5.4251   -4.5300 O.3       1 <0>        -0.5300
     22 O4          0.1143   -3.2480   -3.8475 O.3       1 <0>        -0.5376
     23 C16        -4.3465   -2.0435   -1.5474 C.ar      1 <0>        -0.0346
     24 C17        -4.3761   -1.7498   -2.9128 C.ar      1 <0>        -0.0678
     25 C18        -5.3339   -2.3281   -3.7189 C.ar      1 <0>        -0.1503
     26 C19        -6.2658   -3.1990   -3.1770 C.ar      1 <0>         0.1091
     27 C20        -6.2417   -3.4939   -1.8230 C.ar      1 <0>        -0.1507
     28 C21        -5.2849   -2.9266   -1.0080 C.ar      1 <0>        -0.0675
     29 F1         -7.2019   -3.7626   -3.9717 F         1 <0>        -0.1358
     30 C22        -4.8844   -0.3584    1.0467 C.ar      1 <0>        -0.0209
     31 C23        -5.6482   -1.3569    1.6504 C.ar      1 <0>        -0.0766
     32 C24        -6.8793   -1.0484    2.1912 C.ar      1 <0>        -0.1519
     33 C25        -7.3573    0.2509    2.1349 C.ar      1 <0>         0.1006
     34 C26        -6.6022    1.2464    1.5361 C.ar      1 <0>        -0.1505
     35 C27        -5.3673    0.9490    0.9976 C.ar      1 <0>        -0.0669
     36 F2         -8.5639    0.5480    2.6651 F         1 <0>        -0.1394
     37 Br1        -1.9900    0.7393    2.5249 Br        1 <0>        -0.0147
     38 H3          1.5542    0.9946    0.4129 H         1 <0>         0.0660
     39 H4          0.1669    1.2967   -0.6606 H         1 <0>         0.0561
     40 H5         -0.0407    1.3757    1.1055 H         1 <0>         0.0730
     41 H6          0.6524   -1.1293   -0.4951 H         1 <0>         0.0785
     42 H7          0.0517   -0.7160    2.4689 H         1 <0>         0.0726
     43 H8          0.3250   -2.2850    1.6742 H         1 <0>         0.0546
     44 H9          1.6465   -1.0970    1.7764 H         1 <0>         0.0656
     45 H10        -0.5546   -1.6200   -2.4770 H         1 <0>         0.1564
     46 H11        -2.3775   -3.9022   -1.6270 H         1 <0>         0.1263
     47 H12         0.4832   -5.1584   -2.0833 H         1 <0>         0.0775
     48 H13        -1.0674   -5.9962   -2.3322 H         1 <0>         0.0883
     49 H14         1.6397   -7.3690   -2.7802 H         1 <0>         0.1089
     50 H15         0.0091   -8.0539   -2.9809 H         1 <0>         0.1143
     51 H16         2.6158  -11.2648   -5.3083 H         1 <0>         0.1025
     52 H17         1.4081  -10.4119   -6.2994 H         1 <0>         0.0608
     53 H18         3.0387   -9.7270   -6.0987 H         1 <0>         0.0614
     54 H19         2.1144   -5.2492   -3.9024 H         1 <0>         0.3659
     55 H20         0.7884   -3.0041   -3.1986 H         1 <0>         0.3707
     56 H21        -3.6506   -1.0710   -3.3361 H         1 <0>         0.1310
     57 H22        -5.3580   -2.1015   -4.7746 H         1 <0>         0.1397
     58 H23        -6.9707   -4.1731   -1.4063 H         1 <0>         0.1406
     59 H24        -5.2640   -3.1608    0.0461 H         1 <0>         0.1367
     60 H25        -5.2768   -2.3701    1.6942 H         1 <0>         0.1303
     61 H26        -7.4716   -1.8209    2.6590 H         1 <0>         0.1367
     62 H27        -6.9790    2.2576    1.4946 H         1 <0>         0.1369
     63 H28        -4.7776    1.7264    0.5347 H         1 <0>         0.1321
@<TRIPOS>BOND
     1    1    2 1
     2    1   38 1
     3    1   39 1
     4    1   40 1
     5    2    3 1
     6    2    4 1
     7    2   41 1
     8    3   42 1
     9    3   43 1
    10    3   44 1
    11    4    8 1
    12    4    5 2
    13    5    6 1
    14    5   37 1
    15    6    7 2
    16    6   30 1
    17    7    8 1
    18    7   23 1
    19    8    9 1
    20    9   10 2
    21    9   45 1
    22   10   11 1
    23   10   46 1
    24   11   12 1
    25   11   13 1
    26   11   22 1
    27   13   14 1
    28   13   47 1
    29   13   48 1
    30   14   15 1
    31   14   16 1
    32   14   21 1
    33   16   17 1
    34   16   49 1
    35   16   50 1
    36   17   18 2
    37   17   19 1
    38   19   20 1
    39   20   51 1
    40   20   52 1
    41   20   53 1
    42   21   54 1
    43   22   55 1
    44   23   28 ar
    45   23   24 ar
    46   24   25 ar
    47   24   56 1
    48   25   26 ar
    49   25   57 1
    50   26   27 ar
    51   26   29 1
    52   27   28 ar
    53   27   58 1
    54   28   59 1
    55   30   35 ar
    56   30   31 ar
    57   31   32 ar
    58   31   60 1
    59   32   33 ar
    60   32   61 1
    61   33   34 ar
    62   33   36 1
    63   34   35 ar
    64   34   62 1
    65   35   63 1
@<TRIPOS>MOLECULE
CHEMBL100721
   55    57     0     0     0
SMALL
USER_CHARGES

@<TRIPOS>ATOM
      1 C1          0.9257    0.3276   -0.3452 C.ar      1 <0>        -0.0810
      2 C2          1.7358    1.4470   -0.3661 C.ar      1 <0>        -0.1531
      3 C3          1.2084    2.6885   -0.0533 C.ar      1 <0>         0.0997
      4 C4         -0.1302    2.8067    0.2802 C.ar      1 <0>        -0.1496
      5 C5         -0.9384    1.6858    0.3004 C.ar      1 <0>        -0.0717
      6 C6         -0.4107    0.4468   -0.0121 C.ar      1 <0>        -0.0861
      7 C7         -1.2930   -0.7747    0.0103 C.3       1 <0>         0.0372
      8 C8         -1.1832   -1.4979   -1.3073 C.ar      1 <0>        -0.0901
      9 C9         -1.2093   -2.8797   -1.3410 C.ar      1 <0>        -0.0848
     10 C10        -1.1092   -3.5439   -2.5487 C.ar      1 <0>        -0.1488
     11 C11        -0.9826   -2.8250   -3.7252 C.ar      1 <0>         0.0993
     12 C12        -0.9565   -1.4411   -3.6902 C.ar      1 <0>        -0.1491
     13 C13        -1.0621   -0.7789   -2.4818 C.ar      1 <0>        -0.0743
     14 F1         -0.8841   -3.4734   -4.9064 F         1 <0>        -0.1395
     15 C14        -0.8548   -1.6905    1.1240 C.ar      1 <0>        -0.0712
     16 C15         0.3872   -2.2943    1.0743 C.ar      1 <0>        -0.0862
     17 C16         0.7902   -3.1355    2.0958 C.ar      1 <0>        -0.0305
     18 C17        -0.0491   -3.3744    3.1698 C.ar      1 <0>        -0.0905
     19 C18        -1.2921   -2.7725    3.2235 C.ar      1 <0>        -0.0455
     20 C19        -1.6954   -1.9231    2.2019 C.ar      1 <0>         0.1243
     21 O1         -2.9153   -1.3256    2.2551 O.3       1 <0>        -0.3086
     22 C20        -4.0098   -2.0315    1.6671 C.3       1 <0>         0.0313
     23 C21        -5.2902   -1.2088    1.8231 C.3       1 <0>         0.1200
     24 C22        -6.4820   -2.0171    1.3061 C.3       1 <0>        -0.1849
     25 C23        -7.7762   -1.2467    1.5757 C.3       1 <0>         0.1400
     26 H1         -7.8416   -1.0063    2.6368 H         1 <0>         0.0953
     27 C24        -8.9753   -2.1074    1.1729 C.3       1 <0>        -0.2192
     28 C25       -10.2510   -1.4000    1.5512 C.2       1 <0>         0.4905
     29 O2        -10.2054   -0.3086    2.0928 O.co2     1 <0>        -0.6802
     30 O3        -11.3288   -1.9191    1.3157 O.co2     1 <0>        -0.7124
     31 O4         -7.7792   -0.0386    0.8124 O.3       1 <0>        -0.5264
     32 O5         -5.1735    0.0012    1.0718 O.3       1 <0>        -0.5303
     33 Cl1        -2.3453   -3.0726    4.5706 Cl        1 <0>        -0.0359
     34 Cl2         2.3509   -3.8930    2.0301 Cl        1 <0>        -0.0535
     35 F2          1.9995    3.7835   -0.0729 F         1 <0>        -0.1403
     36 H2          1.3359   -0.6402   -0.5935 H         1 <0>         0.1299
     37 H3          2.7799    1.3536   -0.6259 H         1 <0>         0.1349
     38 H4         -0.5426    3.7745    0.5247 H         1 <0>         0.1384
     39 H5         -1.9825    1.7778    0.5608 H         1 <0>         0.1424
     40 H6         -2.3275   -0.4727    0.1739 H         1 <0>         0.1197
     41 H7         -1.3077   -3.4402   -0.4231 H         1 <0>         0.1300
     42 H8         -1.1292   -4.6234   -2.5748 H         1 <0>         0.1361
     43 H9         -0.8579   -0.8793   -4.6073 H         1 <0>         0.1369
     44 H10        -1.0460    0.3006   -2.4547 H         1 <0>         0.1354
     45 H11         1.0437   -2.1095    0.2368 H         1 <0>         0.1448
     46 H12         0.2672   -4.0318    3.9663 H         1 <0>         0.1490
     47 H13        -3.8097   -2.1951    0.6081 H         1 <0>         0.0584
     48 H14        -4.1324   -2.9927    2.1663 H         1 <0>         0.0654
     49 H15        -5.4425   -0.9697    2.8756 H         1 <0>         0.1091
     50 H16        -6.3728   -2.1801    0.2339 H         1 <0>         0.0664
     51 H17        -6.5183   -2.9787    1.8180 H         1 <0>         0.0775
     52 H18        -8.9577   -2.2737    0.0958 H         1 <0>         0.0570
     53 H19        -8.9244   -3.0659    1.6894 H         1 <0>         0.0616
     54 H20        -7.7231   -0.1768   -0.1430 H         1 <0>         0.3504
     55 H21        -5.0359   -0.1358    0.1244 H         1 <0>         0.3628
@<TRIPOS>BOND
     1    1    6 ar
     2    1    2 ar
     3    1   36 1
     4    2    3 ar
     5    2   37 1
     6    3    4 ar
     7    3   35 1
     8    4    5 ar
     9    4   38 1
    10    5    6 ar
    11    5   39 1
    12    6    7 1
    13    7    8 1
    14    7   15 1
    15    7   40 1
    16    8   13 ar
    17    8    9 ar
    18    9   10 ar
    19    9   41 1
    20   10   11 ar
    21   10   42 1
    22   11   12 ar
    23   11   14 1
    24   12   13 ar
    25   12   43 1
    26   13   44 1
    27   15   20 ar
    28   15   16 ar
    29   16   17 ar
    30   16   45 1
    31   17   18 ar
    32   17   34 1
    33   18   19 ar
    34   18   46 1
    35   19   20 ar
    36   19   33 1
    37   20   21 1
    38   21   22 1
    39   22   23 1
    40   22   47 1
    41   22   48 1
    42   23   24 1
    43   23   32 1
    44   23   49 1
    45   24   25 1
    46   24   50 1
    47   24   51 1
    48   25   26 1
    49   25   27 1
    50   25   31 1
    51   27   28 1
    52   27   52 1
    53   27   53 1
    54   28   29 2
    55   28   30 1
    56   31   54 1
    57   32   55 1
@<TRIPOS>MOLECULE
CHEMBL100721__1
   55    57     0     0     0
SMALL
USER_CHARGES

@<TRIPOS>ATOM
      1 C1          0.9268    0.3256   -0.3445 C.ar      1 <0>        -0.0803
      2 C2          1.7379    1.4443   -0.3651 C.ar      1 <0>        -0.1524
      3 C3          1.2116    2.6862   -0.0524 C.ar      1 <0>         0.1001
      4 C4         -0.1270    2.8056    0.2807 C.ar      1 <0>        -0.1491
      5 C5         -0.9362    1.6855    0.3007 C.ar      1 <0>        -0.0731
      6 C6         -0.4096    0.4460   -0.0118 C.ar      1 <0>        -0.0862
      7 C7         -1.2930   -0.7747    0.0103 C.3       1 <0>         0.0371
      8 C8         -1.1831   -1.4982   -1.3071 C.ar      1 <0>        -0.0904
      9 C9         -1.2092   -2.8800   -1.3405 C.ar      1 <0>        -0.0844
     10 C10        -1.1090   -3.5445   -2.5481 C.ar      1 <0>        -0.1488
     11 C11        -0.9824   -2.8258   -3.7248 C.ar      1 <0>         0.0998
     12 C12        -0.9563   -1.4419   -3.6901 C.ar      1 <0>        -0.1489
     13 C13        -1.0620   -0.7794   -2.4818 C.ar      1 <0>        -0.0741
     14 F1         -0.8838   -3.4745   -4.9058 F         1 <0>        -0.1394
     15 C14        -0.8563   -1.6907    1.1244 C.ar      1 <0>        -0.0718
     16 C15         0.3853   -2.2956    1.0754 C.ar      1 <0>        -0.0858
     17 C16         0.7870   -3.1370    2.0973 C.ar      1 <0>        -0.0304
     18 C17        -0.0532   -3.3751    3.1709 C.ar      1 <0>        -0.0908
     19 C18        -1.2958   -2.7721    3.2238 C.ar      1 <0>        -0.0444
     20 C19        -1.6977   -1.9225    2.2018 C.ar      1 <0>         0.1243
     21 O1         -2.9171   -1.3238    2.2543 O.3       1 <0>        -0.3084
     22 C20        -4.0118   -2.0290    1.6657 C.3       1 <0>         0.0315
     23 C21        -5.2917   -1.2050    1.8208 C.3       1 <0>         0.1181
     24 C22        -6.4380   -1.8998    1.0831 C.3       1 <0>        -0.1845
     25 C23        -7.6860   -1.0160    1.1323 C.3       1 <0>         0.1377
     26 H1         -7.9195   -0.7744    2.1692 H         1 <0>         0.1046
     27 C24        -8.8647   -1.7626    0.5046 C.3       1 <0>        -0.2185
     28 C25       -10.1198   -0.9435    0.6628 C.2       1 <0>         0.4904
     29 O2        -10.0755    0.1373    1.2254 O.co2     1 <0>        -0.6799
     30 O3        -11.1794   -1.3616    0.2282 O.co2     1 <0>        -0.7120
     31 O4         -7.4444    0.1902    0.4050 O.3       1 <0>        -0.5398
     32 O5         -5.6183   -1.0889    3.2071 O.3       1 <0>        -0.5415
     33 Cl1        -2.3500   -3.0711    4.5703 Cl        1 <0>        -0.0350
     34 Cl2         2.3470   -3.8959    2.0327 Cl        1 <0>        -0.0534
     35 F2          2.0036    3.7805   -0.0718 F         1 <0>        -0.1399
     36 H2          1.3361   -0.6425   -0.5928 H         1 <0>         0.1304
     37 H3          2.7820    1.3499   -0.6247 H         1 <0>         0.1354
     38 H4         -0.5386    3.7737    0.5252 H         1 <0>         0.1387
     39 H5         -1.9803    1.7783    0.5608 H         1 <0>         0.1400
     40 H6         -2.3273   -0.4718    0.1733 H         1 <0>         0.1172
     41 H7         -1.3077   -3.4403   -0.4225 H         1 <0>         0.1302
     42 H8         -1.1291   -4.6240   -2.5739 H         1 <0>         0.1363
     43 H9         -0.8576   -0.8803   -4.6073 H         1 <0>         0.1371
     44 H10        -1.0458    0.3001   -2.4549 H         1 <0>         0.1353
     45 H11         1.0424   -2.1115    0.2384 H         1 <0>         0.1449
     46 H12         0.2620   -4.0326    3.9676 H         1 <0>         0.1488
     47 H13        -3.8113   -2.1928    0.6069 H         1 <0>         0.0644
     48 H14        -4.1356   -2.9899    2.1650 H         1 <0>         0.0599
     49 H15        -5.1376   -0.2117    1.3994 H         1 <0>         0.1151
     50 H16        -6.1527   -2.0681    0.0447 H         1 <0>         0.0716
     51 H17        -6.6510   -2.8560    1.5610 H         1 <0>         0.0730
     52 H18        -8.6686   -1.9259   -0.5551 H         1 <0>         0.0570
     53 H19        -8.9929   -2.7236    1.0027 H         1 <0>         0.0623
     54 H20        -7.2299    0.0509   -0.5275 H         1 <0>         0.3539
     55 H21        -5.7693   -1.9363    3.6479 H         1 <0>         0.3682
@<TRIPOS>BOND
     1    1    6 ar
     2    1    2 ar
     3    1   36 1
     4    2    3 ar
     5    2   37 1
     6    3    4 ar
     7    3   35 1
     8    4    5 ar
     9    4   38 1
    10    5    6 ar
    11    5   39 1
    12    6    7 1
    13    7    8 1
    14    7   15 1
    15    7   40 1
    16    8   13 ar
    17    8    9 ar
    18    9   10 ar
    19    9   41 1
    20   10   11 ar
    21   10   42 1
    22   11   12 ar
    23   11   14 1
    24   12   13 ar
    25   12   43 1
    26   13   44 1
    27   15   20 ar
    28   15   16 ar
    29   16   17 ar
    30   16   45 1
    31   17   18 ar
    32   17   34 1
    33   18   19 ar
    34   18   46 1
    35   19   20 ar
    36   19   33 1
    37   20   21 1
    38   21   22 1
    39   22   23 1
    40   22   47 1
    41   22   48 1
    42   23   24 1
    43   23   32 1
    44   23   49 1
    45   24   25 1
    46   24   50 1
    47   24   51 1
    48   25   26 1
    49   25   27 1
    50   25   31 1
    51   27   28 1
    52   27   52 1
    53   27   53 1
    54   28   29 2
    55   28   30 1
    56   31   54 1
    57   32   55 1
@<TRIPOS>MOLECULE
CHEMBL235472
   77    80     0     0     0
SMALL
USER_CHARGES

@<TRIPOS>ATOM
      1 C1          0.0450    1.5459    0.0465 C.3       1 <0>        -0.1744
      2 C2          0.0320    0.0161    0.0630 C.3       1 <0>         0.1183
      3 C3          0.7422   -0.4864    1.3216 C.3       1 <0>        -0.1755
      4 N1         -1.3533   -0.4605    0.0609 N.pl3     1 <0>        -0.3948
      5 C4         -1.9015   -1.2738   -0.8730 C.2       1 <0>         0.0657
      6 C5         -3.2058   -1.5056   -0.5511 C.2       1 <0>        -0.0979
      7 C6         -3.4798   -0.7974    0.6470 C.2       1 <0>        -0.0640
      8 C7         -2.3009   -0.1578    1.0096 C.2       1 <0>        -0.0204
      9 C8         -2.1041    0.6900    2.1888 C.2       1 <0>         0.6012
     10 O1         -1.7059    0.2013    3.2300 O.2       1 <0>        -0.5170
     11 N2         -2.3641    2.0106    2.1203 N.am      1 <0>        -0.7181
     12 C9         -2.0664    2.8761    3.2643 C.3       1 <0>         0.1595
     13 C10        -2.4475    4.2959    2.9326 C.ar      1 <0>        -0.1115
     14 C11        -1.5248    5.1393    2.3426 C.ar      1 <0>        -0.0990
     15 C12        -1.8743    6.4417    2.0384 C.ar      1 <0>        -0.1211
     16 C13        -3.1468    6.9005    2.3238 C.ar      1 <0>        -0.1100
     17 C14        -4.0697    6.0567    2.9129 C.ar      1 <0>        -0.1211
     18 C15        -3.7215    4.7531    3.2132 C.ar      1 <0>        -0.0983
     19 C16        -4.7691   -0.7534    1.3731 C.ar      1 <0>         0.2046
     20 C17        -4.8490   -0.0989    2.6022 C.ar      1 <0>        -0.1742
     21 C18        -6.0612   -0.0665    3.2688 C.ar      1 <0>        -0.0703
     22 C19        -7.1554   -0.6897    2.6851 C.ar      1 <0>        -0.1825
     23 C20        -7.0053   -1.3206    1.4636 C.ar      1 <0>         0.1070
     24 N3         -5.8414   -1.3326    0.8468 N.ar      1 <0>        -0.4609
     25 C21        -4.1629   -2.3438   -1.3141 C.ar      1 <0>         0.0071
     26 C22        -4.5454   -1.9720   -2.6016 C.ar      1 <0>        -0.0809
     27 C23        -5.4360   -2.7546   -3.3076 C.ar      1 <0>        -0.1530
     28 C24        -5.9497   -3.9085   -2.7384 C.ar      1 <0>         0.0927
     29 C25        -5.5722   -4.2819   -1.4588 C.ar      1 <0>        -0.1520
     30 C26        -4.6778   -3.5084   -0.7477 C.ar      1 <0>        -0.0510
     31 F1         -6.8217   -4.6715   -3.4330 F         1 <0>        -0.1448
     32 C27        -1.1849   -1.8325   -2.0753 C.3       1 <0>        -0.0523
     33 C28        -0.5466   -3.1743   -1.7106 C.3       1 <0>        -0.1451
     34 C29         0.1809   -3.7414   -2.9313 C.3       1 <0>         0.1142
     35 H1         -0.5117   -3.8035   -3.7707 H         1 <0>         0.0990
     36 C30         0.7127   -5.1384   -2.6045 C.3       1 <0>        -0.1866
     37 C31         1.3304   -5.7557   -3.8608 C.3       1 <0>         0.1378
     38 H2          0.5977   -5.7473   -4.6677 H         1 <0>         0.0930
     39 C32         1.7495   -7.1976   -3.5673 C.3       1 <0>        -0.2196
     40 C33         2.2443   -7.8448   -4.8351 C.2       1 <0>         0.4906
     41 O2          2.2604   -7.2115   -5.8768 O.co2     1 <0>        -0.6812
     42 O3          2.6287   -9.0018   -4.8191 O.co2     1 <0>        -0.7134
     43 O4          2.4766   -4.9964   -4.2503 O.3       1 <0>        -0.5282
     44 O5          1.2717   -2.8851   -3.2760 O.3       1 <0>        -0.5421
     45 H3          1.0743    1.9011    0.0969 H         1 <0>         0.0805
     46 H4         -0.4180    1.9033   -0.8733 H         1 <0>         0.0677
     47 H5         -0.5120    1.9233    0.9040 H         1 <0>         0.0688
     48 H6          0.5474   -0.3612   -0.8202 H         1 <0>         0.1118
     49 H7          0.1836   -0.1732    2.2036 H         1 <0>         0.0775
     50 H8          0.8005   -1.5745    1.2959 H         1 <0>         0.0669
     51 H9          1.7485   -0.0695    1.3618 H         1 <0>         0.0773
     52 H10        -2.7482    2.3881    1.3136 H         1 <0>         0.4069
     53 H11        -2.6351    2.5404    4.1315 H         1 <0>         0.0805
     54 H12        -1.0007    2.8287    3.4881 H         1 <0>         0.0802
     55 H13        -0.5307    4.7809    2.1197 H         1 <0>         0.1240
     56 H14        -1.1532    7.1009    1.5781 H         1 <0>         0.1247
     57 H15        -3.4196    7.9182    2.0867 H         1 <0>         0.1235
     58 H16        -5.0637    6.4153    3.1362 H         1 <0>         0.1244
     59 H17        -4.4438    4.0928    3.6701 H         1 <0>         0.1240
     60 H18        -3.9771    0.3755    3.0278 H         1 <0>         0.1305
     61 H19        -6.1537    0.4324    4.2222 H         1 <0>         0.1311
     62 H20        -8.1151   -0.6823    3.1803 H         1 <0>         0.1323
     63 H21        -7.8550   -1.8064    1.0071 H         1 <0>         0.1551
     64 H22        -4.1457   -1.0724   -3.0460 H         1 <0>         0.1267
     65 H23        -5.7332   -2.4670   -4.3052 H         1 <0>         0.1313
     66 H24        -5.9752   -5.1822   -1.0189 H         1 <0>         0.1296
     67 H25        -4.3804   -3.8028    0.2479 H         1 <0>         0.1216
     68 H26        -1.8970   -1.9777   -2.8877 H         1 <0>         0.0921
     69 H27        -0.4093   -1.1353   -2.3924 H         1 <0>         0.0805
     70 H28         0.1655   -3.0290   -0.8983 H         1 <0>         0.0612
     71 H29        -1.3222   -3.8714   -1.3936 H         1 <0>         0.0763
     72 H30         1.4710   -5.0653   -1.8250 H         1 <0>         0.0612
     73 H31        -0.1070   -5.7668   -2.2562 H         1 <0>         0.0743
     74 H32         2.5459   -7.2002   -2.8232 H         1 <0>         0.0556
     75 H33         0.8936   -7.7541   -3.1854 H         1 <0>         0.0611
     76 H34         3.1715   -4.9606   -3.5788 H         1 <0>         0.3490
     77 H35         1.9289   -2.7833   -2.5740 H         1 <0>         0.3625
@<TRIPOS>BOND
     1    1    2 1
     2    1   45 1
     3    1   46 1
     4    1   47 1
     5    2    3 1
     6    2    4 1
     7    2   48 1
     8    3   49 1
     9    3   50 1
    10    3   51 1
    11    4    8 1
    12    4    5 1
    13    5    6 2
    14    5   32 1
    15    6    7 1
    16    6   25 1
    17    7    8 2
    18    7   19 1
    19    8    9 1
    20    9   10 2
    21    9   11 am
    22   11   12 1
    23   11   52 1
    24   12   13 1
    25   12   53 1
    26   12   54 1
    27   13   18 ar
    28   13   14 ar
    29   14   15 ar
    30   14   55 1
    31   15   16 ar
    32   15   56 1
    33   16   17 ar
    34   16   57 1
    35   17   18 ar
    36   17   58 1
    37   18   59 1
    38   19   24 ar
    39   19   20 ar
    40   20   21 ar
    41   20   60 1
    42   21   22 ar
    43   21   61 1
    44   22   23 ar
    45   22   62 1
    46   23   24 ar
    47   23   63 1
    48   25   30 ar
    49   25   26 ar
    50   26   27 ar
    51   26   64 1
    52   27   28 ar
    53   27   65 1
    54   28   29 ar
    55   28   31 1
    56   29   30 ar
    57   29   66 1
    58   30   67 1
    59   32   33 1
    60   32   68 1
    61   32   69 1
    62   33   34 1
    63   33   70 1
    64   33   71 1
    65   34   35 1
    66   34   36 1
    67   34   44 1
    68   36   37 1
    69   36   72 1
    70   36   73 1
    71   37   38 1
    72   37   39 1
    73   37   43 1
    74   39   40 1
    75   39   74 1
    76   39   75 1
    77   40   41 2
    78   40   42 1
    79   43   76 1
    80   44   77 1
@<TRIPOS>MOLECULE
CHEMBL140218
   60    62     0     0     0
SMALL
USER_CHARGES

@<TRIPOS>ATOM
      1 C1         -0.0187    1.5258    0.0104 C.3       1 <0>        -0.1401
      2 C2          0.0021   -0.0041    0.0020 C.3       1 <0>        -0.0449
      3 C3          0.7421   -0.5109    1.2415 C.3       1 <0>        -0.1398
      4 C4         -1.4117   -0.5257    0.0127 C.ar      1 <0>         0.1578
      5 C5         -1.8565   -1.3322   -1.0351 C.ar      1 <0>        -0.0824
      6 C6         -3.1829   -1.8130   -1.0110 C.ar      1 <0>         0.0077
      7 C7         -3.9921   -1.4567    0.0666 C.ar      1 <0>        -0.1537
      8 C8         -3.4657   -0.6476    1.0688 C.ar      1 <0>         0.1666
      9 N1         -2.2096   -0.2193    1.0125 N.ar      1 <0>        -0.4679
     10 C9         -4.3180   -0.2622    2.2193 C.ar      1 <0>        -0.0453
     11 C10        -5.6347   -0.7133    2.2967 C.ar      1 <0>        -0.1027
     12 C11        -6.4233   -0.3513    3.3698 C.ar      1 <0>        -0.1234
     13 C12        -5.9094    0.4575    4.3675 C.ar      1 <0>        -0.1115
     14 C13        -4.6036    0.9085    4.2958 C.ar      1 <0>        -0.1259
     15 C14        -3.8038    0.5479    3.2305 C.ar      1 <0>        -0.0796
     16 C15        -3.7013   -2.6724   -2.1012 C.ar      1 <0>        -0.0647
     17 C16        -3.5345   -2.2908   -3.4321 C.ar      1 <0>        -0.0569
     18 C17        -4.0184   -3.0942   -4.4435 C.ar      1 <0>        -0.1506
     19 C18        -4.6695   -4.2790   -4.1388 C.ar      1 <0>         0.1082
     20 C19        -4.8381   -4.6621   -2.8177 C.ar      1 <0>        -0.1541
     21 C20        -4.3525   -3.8681   -1.7997 C.ar      1 <0>        -0.0760
     22 F1         -5.1417   -5.0627   -5.1327 F         1 <0>        -0.1367
     23 C21        -0.9546   -1.6766   -2.1508 C.2       1 <0>        -0.1328
     24 C22        -0.8210   -2.9417   -2.5301 C.2       1 <0>        -0.1476
     25 C23         0.1003   -3.2934   -3.6697 C.3       1 <0>         0.1416
     26 C24         1.1085   -4.3459   -3.2043 C.3       1 <0>        -0.1810
     27 C25         1.9626   -4.7942   -4.3918 C.3       1 <0>         0.1378
     28 H1          1.3135   -5.1400   -5.1963 H         1 <0>         0.0932
     29 C26         2.8850   -5.9342   -3.9551 C.3       1 <0>        -0.2191
     30 C27         3.6373   -6.4579   -5.1512 C.2       1 <0>         0.4906
     31 O1          3.4529   -5.9650   -6.2511 O.co2     1 <0>        -0.6810
     32 O2          4.4305   -7.3744   -5.0192 O.co2     1 <0>        -0.7129
     33 O3          2.7500   -3.6950   -4.8541 O.3       1 <0>        -0.5277
     34 O4          0.7979   -2.1218   -4.0972 O.3       1 <0>        -0.5370
     35 H2          1.0039    1.9031    0.0027 H         1 <0>         0.0610
     36 H3         -0.5459    1.8868   -0.8726 H         1 <0>         0.0525
     37 H4         -0.5289    1.8773    0.9072 H         1 <0>         0.0633
     38 H5          0.5123   -0.3556   -0.8948 H         1 <0>         0.0900
     39 H6          0.2319   -0.1594    2.1383 H         1 <0>         0.0632
     40 H7          0.7568   -1.6008    1.2356 H         1 <0>         0.0524
     41 H8          1.7647   -0.1336    1.2338 H         1 <0>         0.0611
     42 H9         -5.0133   -1.8035    0.1227 H         1 <0>         0.1377
     43 H10        -6.0371   -1.3445    1.5182 H         1 <0>         0.1254
     44 H11        -7.4436   -0.6999    3.4307 H         1 <0>         0.1250
     45 H12        -6.5302    0.7382    5.2055 H         1 <0>         0.1225
     46 H13        -4.2079    1.5403    5.0772 H         1 <0>         0.1246
     47 H14        -2.7830    0.8967    3.1780 H         1 <0>         0.1349
     48 H15        -3.0275   -1.3675   -3.6705 H         1 <0>         0.1360
     49 H16        -3.8899   -2.7994   -5.4745 H         1 <0>         0.1404
     50 H17        -5.3468   -5.5860   -2.5851 H         1 <0>         0.1382
     51 H18        -4.4805   -4.1697   -0.7706 H         1 <0>         0.1330
     52 H19        -0.4030   -0.8994   -2.6589 H         1 <0>         0.1352
     53 H20        -1.3725   -3.7189   -2.0220 H         1 <0>         0.1137
     54 H21        -0.4838   -3.6916   -4.4994 H         1 <0>         0.1092
     55 H22         1.7515   -3.9180   -2.4352 H         1 <0>         0.0646
     56 H23         0.5751   -5.2043   -2.7957 H         1 <0>         0.0746
     57 H24         3.5933   -5.5647   -3.2136 H         1 <0>         0.0565
     58 H25         2.2896   -6.7370   -3.5203 H         1 <0>         0.0608
     59 H26         3.3526   -3.3355   -4.1888 H         1 <0>         0.3501
     60 H27         1.3395   -1.7131   -3.4082 H         1 <0>         0.3658
@<TRIPOS>BOND
     1    1    2 1
     2    1   35 1
     3    1   36 1
     4    1   37 1
     5    2    3 1
     6    2    4 1
     7    2   38 1
     8    3   39 1
     9    3   40 1
    10    3   41 1
    11    4    9 ar
    12    4    5 ar
    13    5    6 ar
    14    5   23 1
    15    6    7 ar
    16    6   16 1
    17    7    8 ar
    18    7   42 1
    19    8    9 ar
    20    8   10 1
    21   10   15 ar
    22   10   11 ar
    23   11   12 ar
    24   11   43 1
    25   12   13 ar
    26   12   44 1
    27   13   14 ar
    28   13   45 1
    29   14   15 ar
    30   14   46 1
    31   15   47 1
    32   16   21 ar
    33   16   17 ar
    34   17   18 ar
    35   17   48 1
    36   18   19 ar
    37   18   49 1
    38   19   20 ar
    39   19   22 1
    40   20   21 ar
    41   20   50 1
    42   21   51 1
    43   23   24 2
    44   23   52 1
    45   24   25 1
    46   24   53 1
    47   25   26 1
    48   25   34 1
    49   25   54 1
    50   26   27 1
    51   26   55 1
    52   26   56 1
    53   27   28 1
    54   27   29 1
    55   27   33 1
    56   29   30 1
    57   29   57 1
    58   29   58 1
    59   30   31 2
    60   30   32 1
    61   33   59 1
    62   34   60 1
@<TRIPOS>MOLECULE
CHEMBL140218__1
   60    62     0     0     0
SMALL
USER_CHARGES

@<TRIPOS>ATOM
      1 C1         -0.0187    1.5258    0.0104 C.3       1 <0>        -0.1400
      2 C2          0.0021   -0.0041    0.0020 C.3       1 <0>        -0.0468
      3 C3          0.7421   -0.5109    1.2415 C.3       1 <0>        -0.1394
      4 C4         -1.4117   -0.5257    0.0127 C.ar      1 <0>         0.1599
      5 C5         -1.8565   -1.3322   -1.0351 C.ar      1 <0>        -0.0867
      6 C6         -3.1829   -1.8130   -1.0110 C.ar      1 <0>         0.0101
      7 C7         -3.9921   -1.4567    0.0666 C.ar      1 <0>        -0.1546
      8 C8         -3.4657   -0.6476    1.0688 C.ar      1 <0>         0.1681
      9 N1         -2.2096   -0.2193    1.0125 N.ar      1 <0>        -0.4683
     10 C9         -4.3180   -0.2622    2.2193 C.ar      1 <0>        -0.0458
     11 C10        -5.6347   -0.7133    2.2967 C.ar      1 <0>        -0.1024
     12 C11        -6.4233   -0.3513    3.3698 C.ar      1 <0>        -0.1236
     13 C12        -5.9094    0.4575    4.3675 C.ar      1 <0>        -0.1113
     14 C13        -4.6036    0.9085    4.2958 C.ar      1 <0>        -0.1259
     15 C14        -3.8038    0.5479    3.2305 C.ar      1 <0>        -0.0793
     16 C15        -3.7013   -2.6724   -2.1012 C.ar      1 <0>        -0.0662
     17 C16        -3.5345   -2.2908   -3.4321 C.ar      1 <0>        -0.0531
     18 C17        -4.0184   -3.0942   -4.4435 C.ar      1 <0>        -0.1408
     19 C18        -4.6695   -4.2790   -4.1388 C.ar      1 <0>         0.1068
     20 C19        -4.8381   -4.6621   -2.8177 C.ar      1 <0>        -0.1554
     21 C20        -4.3525   -3.8681   -1.7997 C.ar      1 <0>        -0.0778
     22 F1         -5.1417   -5.0627   -5.1327 F         1 <0>        -0.1374
     23 C21        -0.9546   -1.6766   -2.1508 C.2       1 <0>        -0.1211
     24 C22        -0.8210   -2.9417   -2.5301 C.2       1 <0>        -0.1454
     25 C23         0.1003   -3.2934   -3.6697 C.3       1 <0>         0.1405
     26 C24         1.1846   -4.2511   -3.1719 C.3       1 <0>        -0.1823
     27 C25         2.1910   -4.5101   -4.2949 C.3       1 <0>         0.1361
     28 H1          1.6646   -4.8710   -5.1785 H         1 <0>         0.1026
     29 C26         3.2039   -5.5624   -3.8393 C.3       1 <0>        -0.2185
     30 C27         4.1197   -5.9074   -4.9854 C.2       1 <0>         0.4907
     31 O1          3.9756   -5.3621   -6.0663 O.co2     1 <0>        -0.6806
     32 O2          5.0048   -6.7317   -4.8316 O.co2     1 <0>        -0.7128
     33 O3          2.8750   -3.2959   -4.6109 O.3       1 <0>        -0.5412
     34 O4         -0.6491   -3.9223   -4.7113 O.3       1 <0>        -0.5441
     35 H2          1.0039    1.9031    0.0027 H         1 <0>         0.0613
     36 H3         -0.5459    1.8868   -0.8726 H         1 <0>         0.0522
     37 H4         -0.5289    1.8773    0.9072 H         1 <0>         0.0636
     38 H5          0.5123   -0.3556   -0.8948 H         1 <0>         0.0909
     39 H6          0.2319   -0.1594    2.1383 H         1 <0>         0.0632
     40 H7          0.7568   -1.6008    1.2356 H         1 <0>         0.0526
     41 H8          1.7647   -0.1336    1.2338 H         1 <0>         0.0615
     42 H9         -5.0133   -1.8035    0.1227 H         1 <0>         0.1380
     43 H10        -6.0371   -1.3445    1.5182 H         1 <0>         0.1255
     44 H11        -7.4436   -0.6999    3.4307 H         1 <0>         0.1250
     45 H12        -6.5302    0.7382    5.2055 H         1 <0>         0.1225
     46 H13        -4.2079    1.5403    5.0772 H         1 <0>         0.1247
     47 H14        -2.7830    0.8967    3.1780 H         1 <0>         0.1350
     48 H15        -3.0275   -1.3675   -3.6705 H         1 <0>         0.1336
     49 H16        -3.8899   -2.7994   -5.4745 H         1 <0>         0.1403
     50 H17        -5.3468   -5.5860   -2.5851 H         1 <0>         0.1370
     51 H18        -4.4805   -4.1697   -0.7706 H         1 <0>         0.1318
     52 H19        -0.4030   -0.8994   -2.6589 H         1 <0>         0.1289
     53 H20        -1.3725   -3.7189   -2.0220 H         1 <0>         0.1102
     54 H21         0.5657   -2.3858   -4.0541 H         1 <0>         0.1098
     55 H22         1.6981   -3.8070   -2.3192 H         1 <0>         0.0695
     56 H23         0.7267   -5.1931   -2.8700 H         1 <0>         0.0694
     57 H24         3.7916   -5.1665   -3.0111 H         1 <0>         0.0565
     58 H25         2.6755   -6.4586   -3.5141 H         1 <0>         0.0614
     59 H26         3.3663   -2.9168   -3.8692 H         1 <0>         0.3537
     60 H27        -1.0917   -4.7381   -4.4399 H         1 <0>         0.3680
@<TRIPOS>BOND
     1    1    2 1
     2    1   35 1
     3    1   36 1
     4    1   37 1
     5    2    3 1
     6    2    4 1
     7    2   38 1
     8    3   39 1
     9    3   40 1
    10    3   41 1
    11    4    9 ar
    12    4    5 ar
    13    5    6 ar
    14    5   23 1
    15    6    7 ar
    16    6   16 1
    17    7    8 ar
    18    7   42 1
    19    8    9 ar
    20    8   10 1
    21   10   15 ar
    22   10   11 ar
    23   11   12 ar
    24   11   43 1
    25   12   13 ar
    26   12   44 1
    27   13   14 ar
    28   13   45 1
    29   14   15 ar
    30   14   46 1
    31   15   47 1
    32   16   21 ar
    33   16   17 ar
    34   17   18 ar
    35   17   48 1
    36   18   19 ar
    37   18   49 1
    38   19   20 ar
    39   19   22 1
    40   20   21 ar
    41   20   50 1
    42   21   51 1
    43   23   24 2
    44   23   52 1
    45   24   25 1
    46   24   53 1
    47   25   26 1
    48   25   34 1
    49   25   54 1
    50   26   27 1
    51   26   55 1
    52   26   56 1
    53   27   28 1
    54   27   29 1
    55   27   33 1
    56   29   30 1
    57   29   57 1
    58   29   58 1
    59   30   31 2
    60   30   32 1
    61   33   59 1
    62   34   60 1
@<TRIPOS>MOLECULE
CHEMBL330777
   68    71     0     0     0
SMALL
USER_CHARGES

@<TRIPOS>ATOM
      1 C1          0.4730    2.0229   -0.4150 C.3       1 <0>        -0.1519
      2 C2          0.2864    0.5081   -0.3082 C.3       1 <0>         0.0580
      3 O1          0.9255   -0.1299   -1.4158 O.3       1 <0>        -0.3447
      4 C3          0.8539   -1.4748   -1.4721 C.2       1 <0>         0.5548
      5 O2          0.2648   -2.0889   -0.6041 O.2       1 <0>        -0.4979
      6 C4          1.4883   -2.1987   -2.5831 C.2       1 <0>        -0.1879
      7 C5          2.8649   -2.7188   -2.6280 C.2       1 <0>        -0.0661
      8 C6          3.0017   -3.3178   -3.8649 C.2       1 <0>         0.0722
      9 N1          1.8165   -3.1876   -4.5409 N.pl3     1 <0>        -0.4187
     10 C7          0.9123   -2.5322   -3.7893 C.2       1 <0>         0.0985
     11 C8         -0.5010   -2.2113   -4.2024 C.3       1 <0>        -0.0366
     12 C9         -1.4791   -2.8622   -3.2223 C.3       1 <0>        -0.1496
     13 C10        -0.7032   -0.6947   -4.1931 C.3       1 <0>        -0.1485
     14 C11         1.5666   -3.6960   -5.8920 C.3       1 <0>         0.0934
     15 C12         0.9862   -5.1090   -5.8059 C.3       1 <0>        -0.1319
     16 C13         0.6109   -5.5925   -7.2082 C.3       1 <0>         0.1142
     17 H1         -0.0638   -4.8733   -7.6726 H         1 <0>         0.0897
     18 C14        -0.0819   -6.9543   -7.1109 C.3       1 <0>        -0.1523
     19 C15        -0.4190   -7.4542   -8.5193 C.3       1 <0>         0.1049
     20 H2         -0.9010   -8.4297   -8.4549 H         1 <0>         0.0819
     21 C16         0.8797   -7.5750   -9.3268 C.3       1 <0>        -0.2049
     22 C17         1.6250   -6.2621   -9.2265 C.2       1 <0>         0.4971
     23 O3          2.0554   -5.7147  -10.2139 O.2       1 <0>        -0.4498
     24 O4          1.7952   -5.7193   -8.0030 O.3       1 <0>        -0.3683
     25 O5         -1.2985   -6.5270   -9.1587 O.3       1 <0>        -0.5641
     26 C18         4.2176   -3.9846   -4.3726 C.ar      1 <0>        -0.0216
     27 C19         4.8172   -5.0071   -3.6342 C.ar      1 <0>        -0.0880
     28 C20         5.9525   -5.6259   -4.1147 C.ar      1 <0>        -0.1165
     29 C21         6.4973   -5.2356   -5.3253 C.ar      1 <0>        -0.1115
     30 C22         5.9086   -4.2230   -6.0619 C.ar      1 <0>        -0.1147
     31 C23         4.7698   -3.5995   -5.5961 C.ar      1 <0>        -0.1052
     32 C24         3.8914   -2.6199   -1.5659 C.ar      1 <0>        -0.0148
     33 C25         5.0360   -1.8483   -1.7676 C.ar      1 <0>        -0.0966
     34 C26         5.9890   -1.7602   -0.7738 C.ar      1 <0>        -0.1198
     35 C27         5.8114   -2.4351    0.4208 C.ar      1 <0>        -0.1183
     36 C28         4.6787   -3.2023    0.6268 C.ar      1 <0>        -0.1200
     37 C29         3.7154   -3.2934   -0.3568 C.ar      1 <0>        -0.1037
     38 H3          1.5370    2.2594   -0.4061 H         1 <0>         0.0669
     39 H4          0.0294    2.3789   -1.3448 H         1 <0>         0.0664
     40 H5         -0.0144    2.5094    0.4298 H         1 <0>         0.0794
     41 H6          0.7300    0.1520    0.6216 H         1 <0>         0.0671
     42 H7         -0.7776    0.2715   -0.3171 H         1 <0>         0.0669
     43 H8         -0.6824   -2.5958   -5.2060 H         1 <0>         0.0830
     44 H9         -1.2977   -2.4776   -2.2187 H         1 <0>         0.0669
     45 H10        -2.5013   -2.6301   -3.5211 H         1 <0>         0.0657
     46 H11        -1.3351   -3.9426   -3.2290 H         1 <0>         0.0587
     47 H12        -0.0064   -0.2310   -4.8913 H         1 <0>         0.0608
     48 H13        -1.7254   -0.4626   -4.4918 H         1 <0>         0.0661
     49 H14        -0.5218   -0.3102   -3.1894 H         1 <0>         0.0641
     50 H15         0.8581   -3.0425   -6.4009 H         1 <0>         0.0962
     51 H16         2.5028   -3.7211   -6.4496 H         1 <0>         0.1081
     52 H17         1.7288   -5.7813   -5.3764 H         1 <0>         0.0886
     53 H18         0.0973   -5.0988   -5.1751 H         1 <0>         0.0967
     54 H19         0.5828   -7.6663   -6.6217 H         1 <0>         0.0979
     55 H20        -0.9994   -6.8550   -6.5310 H         1 <0>         0.1001
     56 H21         1.4932   -8.3779   -8.9180 H         1 <0>         0.1193
     57 H22         0.6454   -7.7857  -10.3702 H         1 <0>         0.1093
     58 H23        -1.5536   -6.7816  -10.0560 H         1 <0>         0.3878
     59 H24         4.3931   -5.3124   -2.6890 H         1 <0>         0.1236
     60 H25         6.4174   -6.4165   -3.5445 H         1 <0>         0.1248
     61 H26         7.3863   -5.7235   -5.6968 H         1 <0>         0.1231
     62 H27         6.3395   -3.9228   -7.0056 H         1 <0>         0.1246
     63 H28         4.3087   -2.8122   -6.1742 H         1 <0>         0.1199
     64 H29         5.1760   -1.3212   -2.6998 H         1 <0>         0.1200
     65 H30         6.8757   -1.1634   -0.9289 H         1 <0>         0.1221
     66 H31         6.5602   -2.3630    1.1956 H         1 <0>         0.1208
     67 H32         4.5461   -3.7274    1.5612 H         1 <0>         0.1222
     68 H33         2.8291   -3.8885   -0.1929 H         1 <0>         0.1220
@<TRIPOS>BOND
     1    1    2 1
     2    1   38 1
     3    1   39 1
     4    1   40 1
     5    2    3 1
     6    2   41 1
     7    2   42 1
     8    3    4 1
     9    4    5 2
    10    4    6 1
    11    6   10 2
    12    6    7 1
    13    7    8 2
    14    7   32 1
    15    8    9 1
    16    8   26 1
    17    9   10 1
    18    9   14 1
    19   10   11 1
    20   11   12 1
    21   11   13 1
    22   11   43 1
    23   12   44 1
    24   12   45 1
    25   12   46 1
    26   13   47 1
    27   13   48 1
    28   13   49 1
    29   14   15 1
    30   14   50 1
    31   14   51 1
    32   15   16 1
    33   15   52 1
    34   15   53 1
    35   16   17 1
    36   16   24 1
    37   16   18 1
    38   18   19 1
    39   18   54 1
    40   18   55 1
    41   19   20 1
    42   19   21 1
    43   19   25 1
    44   21   22 1
    45   21   56 1
    46   21   57 1
    47   22   23 2
    48   22   24 1
    49   25   58 1
    50   26   31 ar
    51   26   27 ar
    52   27   28 ar
    53   27   59 1
    54   28   29 ar
    55   28   60 1
    56   29   30 ar
    57   29   61 1
    58   30   31 ar
    59   30   62 1
    60   31   63 1
    61   32   37 ar
    62   32   33 ar
    63   33   34 ar
    64   33   64 1
    65   34   35 ar
    66   34   65 1
    67   35   36 ar
    68   35   66 1
    69   36   37 ar
    70   36   67 1
    71   37   68 1
@<TRIPOS>MOLECULE
CHEMBL142436
   54    55     0     0     0
SMALL
USER_CHARGES

@<TRIPOS>ATOM
      1 C1         -0.0184    1.5028    0.0103 C.3       1 <0>        -0.1092
      2 C2          0.0021   -0.0041    0.0020 C.ar      1 <0>         0.1006
      3 C3          0.0055   -0.6750   -1.2039 C.ar      1 <0>        -0.1200
      4 C4          0.0249   -2.0710   -1.2061 C.ar      1 <0>         0.0046
      5 C5          0.0403   -2.7366    0.0372 C.ar      1 <0>        -0.0408
      6 C6          0.0354   -1.9758    1.2049 C.ar      1 <0>         0.1254
      7 N1          0.0219   -0.6587    1.1492 N.ar      1 <0>        -0.1136
      8 O1          0.0228    0.0781    2.3584 O.3       1 <0>        -0.5335
      9 C7          0.0516   -2.6657    2.5446 C.3       1 <0>        -0.0397
     10 C8          1.2988   -2.2406    3.3221 C.3       1 <0>        -0.1563
     11 C9         -1.1994   -2.2753    3.3343 C.3       1 <0>        -0.1551
     12 C10         0.0607   -4.2114    0.1005 C.2       1 <0>        -0.1409
     13 C11        -0.8136   -4.9178   -0.6045 C.2       1 <0>        -0.1322
     14 C12        -0.7928   -6.4233   -0.5399 C.3       1 <0>         0.1402
     15 C13        -2.1773   -6.9356   -0.1379 C.3       1 <0>        -0.1822
     16 C14        -2.1911   -8.4646   -0.1932 C.3       1 <0>         0.1380
     17 H1         -1.8758   -8.7952   -1.1828 H         1 <0>         0.0938
     18 C15        -3.6070   -8.9723    0.0870 C.3       1 <0>        -0.2195
     19 C16        -3.6479  -10.4685   -0.0880 C.2       1 <0>         0.4906
     20 O2         -2.6383  -11.0728   -0.4072 O.co2     1 <0>        -0.6810
     21 O3         -4.6907  -11.0748    0.0896 O.co2     1 <0>        -0.7124
     22 O4         -1.2951   -8.9849    0.7909 O.3       1 <0>        -0.5277
     23 O5          0.1706   -6.8452    0.4275 O.3       1 <0>        -0.5361
     24 C17         0.0288   -2.8313   -2.4778 C.ar      1 <0>        -0.0726
     25 C18         0.9624   -3.8467   -2.6828 C.ar      1 <0>        -0.0547
     26 C19         0.9618   -4.5521   -3.8682 C.ar      1 <0>        -0.1502
     27 C20         0.0355   -4.2531   -4.8545 C.ar      1 <0>         0.1141
     28 C21        -0.8939   -3.2446   -4.6555 C.ar      1 <0>        -0.1539
     29 C22        -0.9048   -2.5375   -3.4712 C.ar      1 <0>        -0.0716
     30 F1          0.0387   -4.9466   -6.0138 F         1 <0>        -0.1346
     31 H2          1.0042    1.8801    0.0026 H         1 <0>         0.0863
     32 H3         -0.5455    1.8639   -0.8728 H         1 <0>         0.0828
     33 H4         -0.5286    1.8543    0.9071 H         1 <0>         0.0962
     34 H5         -0.0070   -0.1269   -2.1345 H         1 <0>         0.1624
     35 H6          0.0659   -3.7455    2.3971 H         1 <0>         0.0943
     36 H7          1.3105   -2.7395    4.2911 H         1 <0>         0.0621
     37 H8          2.1900   -2.5186    2.7595 H         1 <0>         0.0467
     38 H9          1.2845   -1.1607    3.4696 H         1 <0>         0.0915
     39 H10        -2.0879   -2.5782    2.7804 H         1 <0>         0.0468
     40 H11        -1.1877   -2.7743    4.3034 H         1 <0>         0.0622
     41 H12        -1.2137   -1.1955    3.4818 H         1 <0>         0.0905
     42 H13         0.7872   -4.7153    0.7207 H         1 <0>         0.1431
     43 H14        -1.5402   -4.4139   -1.2247 H         1 <0>         0.1176
     44 H15        -0.5263   -6.8253   -1.5173 H         1 <0>         0.1130
     45 H16        -2.4063   -6.6066    0.8757 H         1 <0>         0.0659
     46 H17        -2.9248   -6.5404   -0.8258 H         1 <0>         0.0759
     47 H18        -3.8886   -8.7181    1.1088 H         1 <0>         0.0569
     48 H19        -4.3045   -8.5059   -0.6088 H         1 <0>         0.0611
     49 H20        -1.5154   -8.7302    1.6973 H         1 <0>         0.3508
     50 H21        -0.0039   -6.5236    1.3226 H         1 <0>         0.3672
     51 H22         1.6850   -4.0802   -1.9148 H         1 <0>         0.1382
     52 H23         1.6847   -5.3384   -4.0280 H         1 <0>         0.1426
     53 H24        -1.6134   -3.0146   -5.4274 H         1 <0>         0.1404
     54 H25        -1.6323   -1.7547   -3.3152 H         1 <0>         0.1358
@<TRIPOS>BOND
     1    1    2 1
     2    1   31 1
     3    1   32 1
     4    1   33 1
     5    2    7 ar
     6    2    3 ar
     7    3    4 ar
     8    3   34 1
     9    4    5 ar
    10    4   24 1
    11    5    6 ar
    12    5   12 1
    13    6    7 ar
    14    6    9 1
    15    7    8 1
    16    9   10 1
    17    9   11 1
    18    9   35 1
    19   10   36 1
    20   10   37 1
    21   10   38 1
    22   11   39 1
    23   11   40 1
    24   11   41 1
    25   12   13 2
    26   12   42 1
    27   13   14 1
    28   13   43 1
    29   14   15 1
    30   14   23 1
    31   14   44 1
    32   15   16 1
    33   15   45 1
    34   15   46 1
    35   16   17 1
    36   16   18 1
    37   16   22 1
    38   18   19 1
    39   18   47 1
    40   18   48 1
    41   19   20 2
    42   19   21 1
    43   22   49 1
    44   23   50 1
    45   24   29 ar
    46   24   25 ar
    47   25   26 ar
    48   25   51 1
    49   26   27 ar
    50   26   52 1
    51   27   28 ar
    52   27   30 1
    53   28   29 ar
    54   28   53 1
    55   29   54 1
@<TRIPOS>MOLECULE
CHEMBL142436__1
   54    55     0     0     0
SMALL
USER_CHARGES

@<TRIPOS>ATOM
      1 C1         -0.0184    1.5028    0.0103 C.3       1 <0>        -0.1094
      2 C2          0.0021   -0.0041    0.0020 C.ar      1 <0>         0.1021
      3 C3          0.0055   -0.6750   -1.2039 C.ar      1 <0>        -0.1209
      4 C4          0.0249   -2.0710   -1.2061 C.ar      1 <0>         0.0068
      5 C5          0.0403   -2.7366    0.0372 C.ar      1 <0>        -0.0451
      6 C6          0.0354   -1.9758    1.2049 C.ar      1 <0>         0.1275
      7 N1          0.0219   -0.6587    1.1492 N.ar      1 <0>        -0.1142
      8 O1          0.0228    0.0781    2.3584 O.3       1 <0>        -0.5330
      9 C7          0.0516   -2.6657    2.5446 C.3       1 <0>        -0.0416
     10 C8          1.2988   -2.2406    3.3221 C.3       1 <0>        -0.1561
     11 C9         -1.1994   -2.2753    3.3343 C.3       1 <0>        -0.1547
     12 C10         0.0607   -4.2114    0.1005 C.2       1 <0>        -0.1285
     13 C11        -0.8136   -4.9178   -0.6045 C.2       1 <0>        -0.1304
     14 C12        -0.7928   -6.4233   -0.5399 C.3       1 <0>         0.1391
     15 C13        -2.1390   -6.9300   -0.0182 C.3       1 <0>        -0.1834
     16 C14        -2.0761   -8.4476    0.1656 C.3       1 <0>         0.1362
     17 H1         -1.7690   -8.9145   -0.7702 H         1 <0>         0.1032
     18 C15        -3.4568   -8.9703    0.5674 C.3       1 <0>        -0.2188
     19 C16        -3.4257  -10.4757    0.6288 C.2       1 <0>         0.4907
     20 O2         -2.3948  -11.0750    0.3749 O.co2     1 <0>        -0.6806
     21 O3         -4.4315  -11.0943    0.9325 O.co2     1 <0>        -0.7123
     22 O4         -1.1305   -8.7647    1.1890 O.3       1 <0>        -0.5412
     23 O5         -0.5583   -6.9529   -1.8462 O.3       1 <0>        -0.5423
     24 C17         0.0288   -2.8313   -2.4778 C.ar      1 <0>        -0.0741
     25 C18         0.9624   -3.8467   -2.6828 C.ar      1 <0>        -0.0510
     26 C19         0.9618   -4.5521   -3.8682 C.ar      1 <0>        -0.1406
     27 C20         0.0355   -4.2531   -4.8545 C.ar      1 <0>         0.1127
     28 C21        -0.8939   -3.2446   -4.6555 C.ar      1 <0>        -0.1552
     29 C22        -0.9048   -2.5375   -3.4712 C.ar      1 <0>        -0.0734
     30 F1          0.0387   -4.9466   -6.0138 F         1 <0>        -0.1353
     31 H2          1.0042    1.8801    0.0026 H         1 <0>         0.0865
     32 H3         -0.5455    1.8639   -0.8728 H         1 <0>         0.0830
     33 H4         -0.5286    1.8543    0.9071 H         1 <0>         0.0964
     34 H5         -0.0070   -0.1269   -2.1345 H         1 <0>         0.1627
     35 H6          0.0659   -3.7455    2.3971 H         1 <0>         0.0953
     36 H7          1.3105   -2.7395    4.2911 H         1 <0>         0.0624
     37 H8          2.1900   -2.5186    2.7595 H         1 <0>         0.0465
     38 H9          1.2845   -1.1607    3.4696 H         1 <0>         0.0917
     39 H10        -2.0879   -2.5782    2.7804 H         1 <0>         0.0471
     40 H11        -1.1877   -2.7743    4.3034 H         1 <0>         0.0626
     41 H12        -1.2137   -1.1955    3.4818 H         1 <0>         0.0905
     42 H13         0.7872   -4.7153    0.7207 H         1 <0>         0.1373
     43 H14        -1.5402   -4.4139   -1.2247 H         1 <0>         0.1140
     44 H15         0.0023   -6.7472    0.1317 H         1 <0>         0.1126
     45 H16        -2.3592   -6.4569    0.9388 H         1 <0>         0.0707
     46 H17        -2.9225   -6.6829   -0.7345 H         1 <0>         0.0707
     47 H18        -3.7255   -8.5721    1.5458 H         1 <0>         0.0569
     48 H19        -4.1943   -8.6519   -0.1694 H         1 <0>         0.0616
     49 H20        -1.3409   -8.3813    2.0514 H         1 <0>         0.3543
     50 H21        -1.2285   -6.7045   -2.4975 H         1 <0>         0.3689
     51 H22         1.6850   -4.0802   -1.9148 H         1 <0>         0.1359
     52 H23         1.6847   -5.3384   -4.0280 H         1 <0>         0.1426
     53 H24        -1.6134   -3.0146   -5.4274 H         1 <0>         0.1392
     54 H25        -1.6323   -1.7547   -3.3152 H         1 <0>         0.1346
@<TRIPOS>BOND
     1    1    2 1
     2    1   31 1
     3    1   32 1
     4    1   33 1
     5    2    7 ar
     6    2    3 ar
     7    3    4 ar
     8    3   34 1
     9    4    5 ar
    10    4   24 1
    11    5    6 ar
    12    5   12 1
    13    6    7 ar
    14    6    9 1
    15    7    8 1
    16    9   10 1
    17    9   11 1
    18    9   35 1
    19   10   36 1
    20   10   37 1
    21   10   38 1
    22   11   39 1
    23   11   40 1
    24   11   41 1
    25   12   13 2
    26   12   42 1
    27   13   14 1
    28   13   43 1
    29   14   15 1
    30   14   23 1
    31   14   44 1
    32   15   16 1
    33   15   45 1
    34   15   46 1
    35   16   17 1
    36   16   18 1
    37   16   22 1
    38   18   19 1
    39   18   47 1
    40   18   48 1
    41   19   20 2
    42   19   21 1
    43   22   49 1
    44   23   50 1
    45   24   29 ar
    46   24   25 ar
    47   25   26 ar
    48   25   51 1
    49   26   27 ar
    50   26   52 1
    51   27   28 ar
    52   27   30 1
    53   28   29 ar
    54   28   53 1
    55   29   54 1
@<TRIPOS>MOLECULE
CHEMBL77486
   81    84     0     0     0
SMALL
USER_CHARGES

@<TRIPOS>ATOM
      1 C1          1.2538    1.3909    0.3023 C.3       1 <0>        -0.1540
      2 C2          0.9958   -0.1117    0.1730 C.3       1 <0>        -0.1104
      3 C3          1.4385   -0.5878   -1.2120 C.3       1 <0>        -0.0832
      4 H1          2.4796   -0.3099   -1.3761 H         1 <0>         0.1050
      5 C4          0.5612    0.0670   -2.2809 C.3       1 <0>        -0.1537
      6 C5          1.2992   -2.0860   -1.2963 C.2       1 <0>         0.4604
      7 O1          0.7900   -2.6976   -0.3871 O.2       1 <0>        -0.5033
      8 O2          1.7407   -2.7410   -2.3816 O.3       1 <0>        -0.3318
      9 C6          1.6976   -4.1688   -2.3398 C.3       1 <0>         0.0943
     10 H2          1.7562   -4.5060   -1.3049 H         1 <0>         0.0884
     11 C7          0.3896   -4.6618   -2.9675 C.3       1 <0>        -0.1292
     12 C8          0.3046   -4.2109   -4.4257 C.3       1 <0>        -0.0544
     13 H3         -0.6195   -4.5849   -4.8665 H         1 <0>         0.0736
     14 C9          1.5006   -4.7548   -5.2144 C.3       1 <0>        -0.0996
     15 C10         2.7865   -4.2354   -4.5768 C.3       1 <0>        -0.0516
     16 H4          2.7590   -3.1458   -4.5670 H         1 <0>         0.0906
     17 C11         2.8718   -4.7398   -3.1314 C.3       1 <0>        -0.0742
     18 H5          2.8194   -5.8285   -3.1241 H         1 <0>         0.0915
     19 C12         4.2089   -4.2917   -2.5401 C.3       1 <0>        -0.0736
     20 H6          4.3335   -3.2184   -2.6836 H         1 <0>         0.0776
     21 C13         5.3279   -5.0437   -3.2670 C.3       1 <0>        -0.0543
     22 H7          6.2849   -4.5789   -3.0300 H         1 <0>         0.0769
     23 C14         5.1174   -5.0100   -4.7512 C.2       1 <0>        -0.1507
     24 C15         4.0023   -4.6812   -5.3267 C.2       1 <0>        -0.1458
     25 C16         5.3449   -6.4991   -2.7952 C.3       1 <0>        -0.1503
     26 C17         4.2495   -4.6212   -1.0466 C.3       1 <0>        -0.1248
     27 C18         5.5349   -4.0601   -0.4352 C.3       1 <0>        -0.1140
     28 C19         5.5754   -4.3895    1.0583 C.3       1 <0>         0.1095
     29 H8          4.6690   -4.0193    1.5374 H         1 <0>         0.0837
     30 C20         6.7984   -3.7245    1.6954 C.3       1 <0>        -0.1533
     31 C21         6.8587   -4.0905    3.1819 C.3       1 <0>         0.1039
     32 H9          7.7355   -3.6291    3.6363 H         1 <0>         0.0793
     33 C22         6.9541   -5.6158    3.3137 C.3       1 <0>        -0.2047
     34 C23         5.8370   -6.2334    2.5013 C.2       1 <0>         0.4956
     35 O3          5.1204   -7.0830    2.9751 O.2       1 <0>        -0.4528
     36 O4          5.6631   -5.8081    1.2328 O.3       1 <0>        -0.3666
     37 O5          5.6781   -3.6238    3.8380 O.3       1 <0>        -0.5632
     38 C24         0.3129   -2.7051   -4.4846 C.2       1 <0>        -0.1392
     39 C25        -0.7469   -2.0602   -4.9053 C.2       1 <0>        -0.1643
     40 C26        -0.6979   -0.5643   -5.0818 C.3       1 <0>        -0.0518
     41 C27        -1.0835   -0.2125   -6.4955 C.ar      1 <0>        -0.0746
     42 C28        -0.1135   -0.1334   -7.4772 C.ar      1 <0>        -0.1146
     43 C29        -0.4672    0.1894   -8.7740 C.ar      1 <0>        -0.1182
     44 C30        -1.7910    0.4326   -9.0892 C.ar      1 <0>        -0.1257
     45 C31        -2.7611    0.3527   -8.1077 C.ar      1 <0>        -0.1184
     46 C32        -2.4080    0.0257   -6.8118 C.ar      1 <0>        -0.1185
     47 H10         2.3177    1.5893    0.1728 H         1 <0>         0.0561
     48 H11         0.6890    1.9236   -0.4627 H         1 <0>         0.0597
     49 H12         0.9384    1.7301    1.2890 H         1 <0>         0.0602
     50 H13         1.5605   -0.6445    0.9381 H         1 <0>         0.0702
     51 H14        -0.0682   -0.3101    0.3026 H         1 <0>         0.0716
     52 H15        -0.4636   -0.2900   -2.1785 H         1 <0>         0.0624
     53 H16         0.5831    1.1495   -2.1557 H         1 <0>         0.0752
     54 H17         0.9391   -0.1922   -3.2699 H         1 <0>         0.0725
     55 H18         0.3551   -5.7504   -2.9231 H         1 <0>         0.0795
     56 H19        -0.4546   -4.2523   -2.4126 H         1 <0>         0.0697
     57 H20         1.4925   -5.8444   -5.1853 H         1 <0>         0.0653
     58 H21         1.4419   -4.4143   -6.2482 H         1 <0>         0.0680
     59 H22         5.9474   -5.2921   -5.3821 H         1 <0>         0.1010
     60 H23         3.9579   -4.7185   -6.4051 H         1 <0>         0.1030
     61 H24         4.3854   -6.9650   -3.0194 H         1 <0>         0.0552
     62 H25         6.1400   -7.0386   -3.3099 H         1 <0>         0.0529
     63 H26         5.5216   -6.5304   -1.7200 H         1 <0>         0.0689
     64 H27         3.3868   -4.1742   -0.5524 H         1 <0>         0.0618
     65 H28         4.2252   -5.7026   -0.9123 H         1 <0>         0.0816
     66 H29         6.3975   -4.5070   -0.9294 H         1 <0>         0.0798
     67 H30         5.5592   -2.9786   -0.5695 H         1 <0>         0.0848
     68 H31         7.7030   -4.0742    1.1979 H         1 <0>         0.0957
     69 H32         6.7202   -2.6425    1.5902 H         1 <0>         0.0972
     70 H33         7.9169   -5.9579    2.9341 H         1 <0>         0.1181
     71 H34         6.8486   -5.9015    4.3603 H         1 <0>         0.1074
     72 H35         5.6495   -3.8219    4.7841 H         1 <0>         0.3863
     73 H36         1.1927   -2.1576   -4.1800 H         1 <0>         0.1302
     74 H37        -1.6557   -2.6004   -5.1256 H         1 <0>         0.1034
     75 H38        -1.3939   -0.0936   -4.3875 H         1 <0>         0.0772
     76 H39         0.3124   -0.2077   -4.8813 H         1 <0>         0.0788
     77 H40         0.9208   -0.3234   -7.2310 H         1 <0>         0.1198
     78 H41         0.2908    0.2519   -9.5408 H         1 <0>         0.1206
     79 H42        -2.0672    0.6855  -10.1021 H         1 <0>         0.1200
     80 H43        -3.7953    0.5430   -8.3538 H         1 <0>         0.1205
     81 H44        -3.1664   -0.0404   -6.0457 H         1 <0>         0.1198
@<TRIPOS>BOND
     1    1    2 1
     2    1   47 1
     3    1   48 1
     4    1   49 1
     5    2    3 1
     6    2   50 1
     7    2   51 1
     8    3    4 1
     9    3    5 1
    10    3    6 1
    11    5   52 1
    12    5   53 1
    13    5   54 1
    14    6    7 2
    15    6    8 1
    16    8    9 1
    17    9   10 1
    18    9   17 1
    19    9   11 1
    20   11   12 1
    21   11   55 1
    22   11   56 1
    23   12   13 1
    24   12   14 1
    25   12   38 1
    26   14   15 1
    27   14   57 1
    28   14   58 1
    29   15   16 1
    30   15   24 1
    31   15   17 1
    32   17   18 1
    33   17   19 1
    34   19   20 1
    35   19   21 1
    36   19   26 1
    37   21   22 1
    38   21   23 1
    39   21   25 1
    40   23   24 2
    41   23   59 1
    42   24   60 1
    43   25   61 1
    44   25   62 1
    45   25   63 1
    46   26   27 1
    47   26   64 1
    48   26   65 1
    49   27   28 1
    50   27   66 1
    51   27   67 1
    52   28   29 1
    53   28   36 1
    54   28   30 1
    55   30   31 1
    56   30   68 1
    57   30   69 1
    58   31   32 1
    59   31   33 1
    60   31   37 1
    61   33   34 1
    62   33   70 1
    63   33   71 1
    64   34   35 2
    65   34   36 1
    66   37   72 1
    67   38   39 2
    68   38   73 1
    69   39   40 1
    70   39   74 1
    71   40   41 1
    72   40   75 1
    73   40   76 1
    74   41   46 ar
    75   41   42 ar
    76   42   43 ar
    77   42   77 1
    78   43   44 ar
    79   43   78 1
    80   44   45 ar
    81   44   79 1
    82   45   46 ar
    83   45   80 1
    84   46   81 1
@<TRIPOS>MOLECULE
CHEMBL157724
   58    61     0     0     0
SMALL
USER_CHARGES

@<TRIPOS>ATOM
      1 C1         -0.0187    1.5258    0.0104 C.3       1 <0>        -0.1419
      2 C2          0.0021   -0.0041    0.0020 C.3       1 <0>        -0.0466
      3 C3          0.7421   -0.5109    1.2415 C.3       1 <0>        -0.1396
      4 C4         -1.4117   -0.5257    0.0127 C.ar      1 <0>         0.1656
      5 C5         -1.8564   -1.3322   -1.0350 C.ar      1 <0>        -0.0971
      6 C6         -3.1830   -1.8131   -1.0111 C.ar      1 <0>         0.0133
      7 C7         -3.9921   -1.4569    0.0664 C.ar      1 <0>        -0.1545
      8 C8         -3.4659   -0.6476    1.0688 C.ar      1 <0>         0.1775
      9 N1         -2.2097   -0.2193    1.0126 N.ar      1 <0>        -0.4682
     10 C9         -4.3180   -0.2624    2.2190 C.ar      1 <0>        -0.0614
     11 C10        -5.6349   -0.7139    2.2958 C.ar      1 <0>        -0.0714
     12 C11        -6.4242   -0.3528    3.3680 C.ar      1 <0>        -0.1559
     13 C12        -5.9102    0.4578    4.3675 C.ar      1 <0>         0.1109
     14 C13        -4.6019    0.9089    4.2954 C.ar      1 <0>        -0.1583
     15 C14        -3.8033    0.5479    3.2302 C.ar      1 <0>        -0.0485
     16 F1         -6.6871    0.8096    5.4153 F         1 <0>        -0.1364
     17 C15        -3.7012   -2.6724   -2.1013 C.ar      1 <0>        -0.0669
     18 C16        -3.5343   -2.2907   -3.4321 C.ar      1 <0>        -0.0598
     19 C17        -4.0180   -3.0942   -4.4436 C.ar      1 <0>        -0.1520
     20 C18        -4.6691   -4.2790   -4.1390 C.ar      1 <0>         0.1094
     21 C19        -4.8374   -4.6624   -2.8180 C.ar      1 <0>        -0.1529
     22 C20        -4.3524   -3.8681   -1.7999 C.ar      1 <0>        -0.0739
     23 F2         -5.1416   -5.0625   -5.1330 F         1 <0>        -0.1361
     24 C21        -0.9545   -1.6765   -2.1507 C.2       1 <0>        -0.0912
     25 C22        -0.8208   -2.9416   -2.5300 C.2       1 <0>        -0.1429
     26 C23         0.1005   -3.2933   -3.6696 C.3       1 <0>         0.1451
     27 C24         1.1128   -4.3428   -3.2032 C.3       1 <0>        -0.1478
     28 C25         2.0734   -4.6673   -4.3517 C.3       1 <0>         0.1041
     29 H1          2.8038   -5.4051   -4.0194 H         1 <0>         0.0817
     30 C26         2.7965   -3.3814   -4.7718 C.3       1 <0>        -0.2047
     31 C27         1.7555   -2.3143   -5.0307 C.2       1 <0>         0.4978
     32 O1          1.7797   -1.6551   -6.0430 O.2       1 <0>        -0.4495
     33 O2          0.7999   -2.1197   -4.0985 O.3       1 <0>        -0.3690
     34 O3          1.3364   -5.1887   -5.4594 O.3       1 <0>        -0.5635
     35 H2          1.0039    1.9031    0.0027 H         1 <0>         0.0616
     36 H3         -0.5459    1.8868   -0.8726 H         1 <0>         0.0531
     37 H4         -0.5289    1.8773    0.9072 H         1 <0>         0.0656
     38 H5          0.5123   -0.3556   -0.8948 H         1 <0>         0.0898
     39 H6          0.2319   -0.1594    2.1383 H         1 <0>         0.0654
     40 H7          0.7568   -1.6008    1.2356 H         1 <0>         0.0519
     41 H8          1.7647   -0.1336    1.2338 H         1 <0>         0.0611
     42 H9         -5.0134   -1.8037    0.1224 H         1 <0>         0.1407
     43 H10        -6.0365   -1.3451    1.5169 H         1 <0>         0.1368
     44 H11        -7.4443   -0.7021    3.4283 H         1 <0>         0.1404
     45 H12        -4.2056    1.5405    5.0767 H         1 <0>         0.1400
     46 H13        -2.7824    0.8963    3.1771 H         1 <0>         0.1460
     47 H14        -3.0273   -1.3674   -3.6704 H         1 <0>         0.1353
     48 H15        -3.8895   -2.7993   -5.4746 H         1 <0>         0.1394
     49 H16        -5.3454   -5.5866   -2.5854 H         1 <0>         0.1397
     50 H17        -4.4804   -4.1698   -0.7708 H         1 <0>         0.1354
     51 H18        -0.4029   -0.8993   -2.6588 H         1 <0>         0.1387
     52 H19        -1.3724   -3.7188   -2.0219 H         1 <0>         0.1331
     53 H20        -0.4829   -3.6928   -4.4991 H         1 <0>         0.0969
     54 H21         1.6772   -3.9526   -2.3562 H         1 <0>         0.0983
     55 H22         0.5856   -5.2485   -2.9031 H         1 <0>         0.0996
     56 H23         3.4640   -3.0575   -3.9732 H         1 <0>         0.1196
     57 H24         3.3707   -3.5627   -5.6804 H         1 <0>         0.1091
     58 H25         1.8834   -5.4162   -6.2237 H         1 <0>         0.3873
@<TRIPOS>BOND
     1    1    2 1
     2    1   35 1
     3    1   36 1
     4    1   37 1
     5    2    3 1
     6    2    4 1
     7    2   38 1
     8    3   39 1
     9    3   40 1
    10    3   41 1
    11    4    9 ar
    12    4    5 ar
    13    5    6 ar
    14    5   24 1
    15    6    7 ar
    16    6   17 1
    17    7    8 ar
    18    7   42 1
    19    8    9 ar
    20    8   10 1
    21   10   15 ar
    22   10   11 ar
    23   11   12 ar
    24   11   43 1
    25   12   13 ar
    26   12   44 1
    27   13   14 ar
    28   13   16 1
    29   14   15 ar
    30   14   45 1
    31   15   46 1
    32   17   22 ar
    33   17   18 ar
    34   18   19 ar
    35   18   47 1
    36   19   20 ar
    37   19   48 1
    38   20   21 ar
    39   20   23 1
    40   21   22 ar
    41   21   49 1
    42   22   50 1
    43   24   25 2
    44   24   51 1
    45   25   26 1
    46   25   52 1
    47   26   33 1
    48   26   27 1
    49   26   53 1
    50   27   28 1
    51   27   54 1
    52   27   55 1
    53   28   29 1
    54   28   30 1
    55   28   34 1
    56   30   31 1
    57   30   56 1
    58   30   57 1
    59   31   32 2
    60   31   33 1
    61   34   58 1
@<TRIPOS>MOLECULE
CHEMBL157724__1
   58    61     0     0     0
SMALL
USER_CHARGES

@<TRIPOS>ATOM
      1 C1         -0.0187    1.5258    0.0104 C.3       1 <0>        -0.1425
      2 C2          0.0021   -0.0041    0.0020 C.3       1 <0>        -0.0458
      3 C3          0.7421   -0.5109    1.2415 C.3       1 <0>        -0.1410
      4 C4         -1.4117   -0.5257    0.0127 C.ar      1 <0>         0.1677
      5 C5         -1.8564   -1.3322   -1.0350 C.ar      1 <0>        -0.1037
      6 C6         -3.1830   -1.8131   -1.0111 C.ar      1 <0>         0.0220
      7 C7         -3.9921   -1.4569    0.0664 C.ar      1 <0>        -0.1563
      8 C8         -3.4659   -0.6476    1.0688 C.ar      1 <0>         0.1823
      9 N1         -2.2097   -0.2193    1.0126 N.ar      1 <0>        -0.4699
     10 C9         -4.3180   -0.2624    2.2190 C.ar      1 <0>        -0.0633
     11 C10        -5.6349   -0.7139    2.2958 C.ar      1 <0>        -0.0705
     12 C11        -6.4242   -0.3528    3.3680 C.ar      1 <0>        -0.1560
     13 C12        -5.9102    0.4578    4.3675 C.ar      1 <0>         0.1119
     14 C13        -4.6019    0.9089    4.2954 C.ar      1 <0>        -0.1586
     15 C14        -3.8033    0.5479    3.2302 C.ar      1 <0>        -0.0477
     16 F1         -6.6871    0.8096    5.4153 F         1 <0>        -0.1361
     17 C15        -3.7012   -2.6724   -2.1013 C.ar      1 <0>        -0.0717
     18 C16        -3.5343   -2.2907   -3.4321 C.ar      1 <0>        -0.0560
     19 C17        -4.0180   -3.0942   -4.4436 C.ar      1 <0>        -0.1397
     20 C18        -4.6691   -4.2790   -4.1390 C.ar      1 <0>         0.1111
     21 C19        -4.8374   -4.6624   -2.8180 C.ar      1 <0>        -0.1533
     22 C20        -4.3524   -3.8681   -1.7999 C.ar      1 <0>        -0.0744
     23 F2         -5.1416   -5.0625   -5.1330 F         1 <0>        -0.1369
     24 C21        -0.9545   -1.6765   -2.1507 C.2       1 <0>        -0.0866
     25 C22        -0.8208   -2.9416   -2.5300 C.2       1 <0>        -0.1294
     26 C23         0.1005   -3.2933   -3.6696 C.3       1 <0>         0.1439
     27 C24         1.1830   -4.2555   -3.1734 C.3       1 <0>        -0.1517
     28 C25         2.0928   -4.6432   -4.3435 C.3       1 <0>         0.1099
     29 H1          2.5665   -3.7494   -4.7494 H         1 <0>         0.0684
     30 C26         1.2436   -5.3137   -5.4309 C.3       1 <0>        -0.2056
     31 C27         0.0729   -4.4080   -5.7449 C.2       1 <0>         0.4916
     32 O1         -0.2067   -4.1268   -6.8862 O.2       1 <0>        -0.4454
     33 O2         -0.6498   -3.9235   -4.7138 O.3       1 <0>        -0.3586
     34 O3          3.0968   -5.5525   -3.8882 O.3       1 <0>        -0.5546
     35 H2          1.0039    1.9031    0.0027 H         1 <0>         0.0622
     36 H3         -0.5459    1.8868   -0.8726 H         1 <0>         0.0530
     37 H4         -0.5289    1.8773    0.9072 H         1 <0>         0.0665
     38 H5          0.5123   -0.3556   -0.8948 H         1 <0>         0.0871
     39 H6          0.2319   -0.1594    2.1383 H         1 <0>         0.0661
     40 H7          0.7568   -1.6008    1.2356 H         1 <0>         0.0530
     41 H8          1.7647   -0.1336    1.2338 H         1 <0>         0.0619
     42 H9         -5.0134   -1.8037    0.1224 H         1 <0>         0.1416
     43 H10        -6.0365   -1.3451    1.5169 H         1 <0>         0.1371
     44 H11        -7.4443   -0.7021    3.4283 H         1 <0>         0.1407
     45 H12        -4.2056    1.5405    5.0767 H         1 <0>         0.1402
     46 H13        -2.7824    0.8963    3.1771 H         1 <0>         0.1461
     47 H14        -3.0273   -1.3674   -3.6704 H         1 <0>         0.1320
     48 H15        -3.8895   -2.7993   -5.4746 H         1 <0>         0.1382
     49 H16        -5.3454   -5.5866   -2.5854 H         1 <0>         0.1384
     50 H17        -4.4804   -4.1698   -0.7708 H         1 <0>         0.1340
     51 H18        -0.4029   -0.8993   -2.6588 H         1 <0>         0.1312
     52 H19        -1.3724   -3.7188   -2.0219 H         1 <0>         0.1264
     53 H20         0.5672   -2.3861   -4.0534 H         1 <0>         0.0844
     54 H21         1.7749   -3.7686   -2.3983 H         1 <0>         0.1008
     55 H22         0.7143   -5.1508   -2.7649 H         1 <0>         0.0927
     56 H23         1.8450   -5.4611   -6.3280 H         1 <0>         0.1082
     57 H24         0.8780   -6.2754   -5.0708 H         1 <0>         0.1183
     58 H25         3.7093   -5.8402   -4.5791 H         1 <0>         0.3863
@<TRIPOS>BOND
     1    1    2 1
     2    1   35 1
     3    1   36 1
     4    1   37 1
     5    2    3 1
     6    2    4 1
     7    2   38 1
     8    3   39 1
     9    3   40 1
    10    3   41 1
    11    4    9 ar
    12    4    5 ar
    13    5    6 ar
    14    5   24 1
    15    6    7 ar
    16    6   17 1
    17    7    8 ar
    18    7   42 1
    19    8    9 ar
    20    8   10 1
    21   10   15 ar
    22   10   11 ar
    23   11   12 ar
    24   11   43 1
    25   12   13 ar
    26   12   44 1
    27   13   14 ar
    28   13   16 1
    29   14   15 ar
    30   14   45 1
    31   15   46 1
    32   17   22 ar
    33   17   18 ar
    34   18   19 ar
    35   18   47 1
    36   19   20 ar
    37   19   48 1
    38   20   21 ar
    39   20   23 1
    40   21   22 ar
    41   21   49 1
    42   22   50 1
    43   24   25 2
    44   24   51 1
    45   25   26 1
    46   25   52 1
    47   26   33 1
    48   26   27 1
    49   26   53 1
    50   27   28 1
    51   27   54 1
    52   27   55 1
    53   28   29 1
    54   28   30 1
    55   28   34 1
    56   30   31 1
    57   30   56 1
    58   30   57 1
    59   31   32 2
    60   31   33 1
    61   34   58 1
@<TRIPOS>MOLECULE
CHEMBL153492
   58    60     0     0     0
SMALL
USER_CHARGES

@<TRIPOS>ATOM
      1 C1         -0.2294    1.7139   -0.3162 C.3       1 <0>        -0.1469
      2 C2         -0.0888    0.1964   -0.1818 C.3       1 <0>        -0.0121
      3 C3          0.7183   -0.1317    1.0759 C.3       1 <0>        -0.1468
      4 C4         -1.4567   -0.4276   -0.0778 C.2       1 <0>        -0.1253
      5 C5         -2.0334   -1.3523   -0.9012 C.2       1 <0>        -0.0725
      6 C6         -3.3684   -1.7978   -0.5846 C.2       1 <0>        -0.0578
      7 C7         -3.9690   -1.2503    0.5384 C.2       1 <0>        -0.1071
      8 S1         -2.7134   -0.1446    1.1540 S.3       1 <0>         0.0590
      9 C8         -5.3115   -1.5198    1.0901 C.ar      1 <0>        -0.0057
     10 C9         -5.4731   -1.7616    2.4562 C.ar      1 <0>        -0.1022
     11 C10        -6.7304   -2.0127    2.9648 C.ar      1 <0>        -0.1186
     12 C11        -7.8301   -2.0258    2.1250 C.ar      1 <0>        -0.1127
     13 C12        -7.6773   -1.7875    0.7705 C.ar      1 <0>        -0.1173
     14 C13        -6.4268   -1.5284    0.2493 C.ar      1 <0>        -0.0878
     15 C14        -4.0677   -2.7970   -1.4238 C.ar      1 <0>        -0.0318
     16 C15        -4.4376   -2.4777   -2.7305 C.ar      1 <0>        -0.0693
     17 C16        -5.0886   -3.4125   -3.5085 C.ar      1 <0>        -0.1492
     18 C17        -5.3755   -4.6667   -2.9941 C.ar      1 <0>         0.1014
     19 C18        -5.0107   -4.9887   -1.6967 C.ar      1 <0>        -0.1502
     20 C19        -4.3538   -4.0631   -0.9125 C.ar      1 <0>        -0.0740
     21 F1         -6.0137   -5.5785   -3.7599 F         1 <0>        -0.1393
     22 C20        -1.3135   -1.8789   -2.0782 C.2       1 <0>        -0.1144
     23 C21        -1.2375   -3.1882   -2.2782 C.2       1 <0>        -0.1552
     24 C22        -0.5029   -3.7256   -3.4793 C.3       1 <0>         0.1424
     25 H1         -1.2074   -4.2307   -4.1401 H         1 <0>         0.1070
     26 C23         0.5675   -4.7179   -3.0205 C.3       1 <0>        -0.1800
     27 C24         1.2287   -5.3565   -4.2436 C.3       1 <0>         0.1376
     28 H2          0.4637   -5.8047   -4.8777 H         1 <0>         0.0930
     29 C25         2.2100   -6.4378   -3.7865 C.3       1 <0>        -0.2188
     30 C26         2.7694   -7.1500   -4.9910 C.2       1 <0>         0.4906
     31 O1          2.4160   -6.8231   -6.1112 O.co2     1 <0>        -0.6809
     32 O2          3.5754   -8.0531   -4.8454 O.co2     1 <0>        -0.7132
     33 O3          1.9326   -4.3555   -4.9815 O.3       1 <0>        -0.5277
     34 O4          0.1176   -2.6460   -4.1804 O.3       1 <0>        -0.5377
     35 H3          0.7599    2.1652   -0.3914 H         1 <0>         0.0651
     36 H4         -0.8044    1.9476   -1.2122 H         1 <0>         0.0602
     37 H5         -0.7439    2.1101    0.5593 H         1 <0>         0.0563
     38 H6          0.4256   -0.1998   -1.0573 H         1 <0>         0.0958
     39 H7          0.8184   -1.2128    1.1716 H         1 <0>         0.0602
     40 H8          1.7076    0.3196    1.0006 H         1 <0>         0.0653
     41 H9          0.2038    0.2645    1.9514 H         1 <0>         0.0562
     42 H10        -4.6156   -1.7523    3.1127 H         1 <0>         0.1241
     43 H11        -6.8568   -2.1998    4.0210 H         1 <0>         0.1255
     44 H12        -8.8122   -2.2233    2.5286 H         1 <0>         0.1234
     45 H13        -8.5398   -1.8000    0.1207 H         1 <0>         0.1254
     46 H14        -6.3096   -1.3375   -0.8072 H         1 <0>         0.1241
     47 H15        -4.2150   -1.5002   -3.1322 H         1 <0>         0.1311
     48 H16        -5.3754   -3.1663   -4.5202 H         1 <0>         0.1367
     49 H17        -5.2370   -5.9674   -1.3002 H         1 <0>         0.1354
     50 H18        -4.0659   -4.3165    0.0971 H         1 <0>         0.1284
     51 H19        -0.8489   -1.1982   -2.7761 H         1 <0>         0.1288
     52 H20        -1.7021   -3.8690   -1.5803 H         1 <0>         0.1128
     53 H21         1.3208   -4.1937   -2.4325 H         1 <0>         0.0635
     54 H22         0.1057   -5.4942   -2.4104 H         1 <0>         0.0741
     55 H23         3.0237   -5.9768   -3.2267 H         1 <0>         0.0562
     56 H24         1.6907   -7.1539   -3.1496 H         1 <0>         0.0608
     57 H25         2.6301   -3.9136   -4.4783 H         1 <0>         0.3497
     58 H26         0.7584   -2.1506   -3.6521 H         1 <0>         0.3646
@<TRIPOS>BOND
     1    1    2 1
     2    1   35 1
     3    1   36 1
     4    1   37 1
     5    2    3 1
     6    2    4 1
     7    2   38 1
     8    3   39 1
     9    3   40 1
    10    3   41 1
    11    4    8 1
    12    4    5 2
    13    5    6 1
    14    5   22 1
    15    6    7 2
    16    6   15 1
    17    7    8 1
    18    7    9 1
    19    9   14 ar
    20    9   10 ar
    21   10   11 ar
    22   10   42 1
    23   11   12 ar
    24   11   43 1
    25   12   13 ar
    26   12   44 1
    27   13   14 ar
    28   13   45 1
    29   14   46 1
    30   15   20 ar
    31   15   16 ar
    32   16   17 ar
    33   16   47 1
    34   17   18 ar
    35   17   48 1
    36   18   19 ar
    37   18   21 1
    38   19   20 ar
    39   19   49 1
    40   20   50 1
    41   22   23 2
    42   22   51 1
    43   23   24 1
    44   23   52 1
    45   24   25 1
    46   24   26 1
    47   24   34 1
    48   26   27 1
    49   26   53 1
    50   26   54 1
    51   27   28 1
    52   27   29 1
    53   27   33 1
    54   29   30 1
    55   29   55 1
    56   29   56 1
    57   30   31 2
    58   30   32 1
    59   33   57 1
    60   34   58 1
@<TRIPOS>MOLECULE
CHEMBL348225
   61    63     0     0     0
SMALL
USER_CHARGES

@<TRIPOS>ATOM
      1 C1          0.6993    1.1652   -0.1632 C.3       1 <0>        -0.1457
      2 C2          0.7147   -0.3647   -0.1590 C.3       1 <0>        -0.0164
      3 C3          1.7577   -0.8670   -1.1593 C.3       1 <0>        -0.1454
      4 C4          1.0629   -0.8598    1.2211 C.2       1 <0>        -0.1182
      5 C5          0.3304   -1.6593    2.0599 C.2       1 <0>        -0.0852
      6 C6          0.8650   -1.9868    3.2994 C.2       1 <0>        -0.0730
      7 C7          2.0964   -1.5005    3.6327 C.2       1 <0>        -0.1282
      8 S1          2.5383   -0.5623    2.1803 S.3       1 <0>         0.0450
      9 C8          2.8690   -1.7038    4.8770 C.ar      1 <0>         0.0016
     10 C9          4.2122   -2.0773    4.8147 C.ar      1 <0>        -0.1042
     11 C10         4.9274   -2.2654    5.9794 C.ar      1 <0>        -0.1176
     12 C11         4.3157   -2.0850    7.2072 C.ar      1 <0>        -0.1165
     13 C12         2.9843   -1.7147    7.2758 C.ar      1 <0>        -0.1173
     14 C13         2.2596   -1.5174    6.1186 C.ar      1 <0>        -0.0978
     15 C14         0.1000   -2.8621    4.2584 C.3       1 <0>        -0.0402
     16 C15        -0.1335   -4.2529    3.6332 C.3       1 <0>        -0.1201
     17 C16        -1.5522   -4.6508    4.1108 C.3       1 <0>        -0.1255
     18 C17        -2.3214   -3.3077    4.0532 C.3       1 <0>        -0.1334
     19 C18        -1.2912   -2.2611    4.5255 C.3       1 <0>        -0.1151
     20 C19        -0.9993   -2.1615    1.6543 C.2       1 <0>        -0.0935
     21 C20        -1.9561   -1.3075    1.3179 C.2       1 <0>        -0.1794
     22 C21        -3.2654   -1.8187    0.7742 C.3       1 <0>         0.1425
     23 H1         -3.4289   -1.4103   -0.2231 H         1 <0>         0.1080
     24 C22        -4.4056   -1.3833    1.6969 C.3       1 <0>        -0.1843
     25 C23        -5.7448   -1.7940    1.0815 C.3       1 <0>         0.1371
     26 H2         -5.8217   -1.3865    0.0735 H         1 <0>         0.0937
     27 C24        -6.8886   -1.2504    1.9400 C.3       1 <0>        -0.2186
     28 C25        -8.2051   -1.5488    1.2700 C.2       1 <0>         0.4905
     29 O1         -8.2265   -2.1413    0.2047 O.co2     1 <0>        -0.6810
     30 O2         -9.2489   -1.1977    1.7933 O.co2     1 <0>        -0.7133
     31 O3         -5.8264   -3.2196    1.0265 O.3       1 <0>        -0.5281
     32 O4         -3.2276   -3.2455    0.7044 O.3       1 <0>        -0.5393
     33 H3          1.6833    1.5392    0.1193 H         1 <0>         0.0555
     34 H4          0.4474    1.5233   -1.1615 H         1 <0>         0.0651
     35 H5         -0.0438    1.5230    0.5494 H         1 <0>         0.0590
     36 H6         -0.2694   -0.7388   -0.4416 H         1 <0>         0.0999
     37 H7          2.7418   -0.4930   -0.8767 H         1 <0>         0.0549
     38 H8          1.7687   -1.9570   -1.1563 H         1 <0>         0.0594
     39 H9          1.5058   -0.5090   -2.1576 H         1 <0>         0.0645
     40 H10         4.6907   -2.2191    3.8569 H         1 <0>         0.1233
     41 H11         5.9669   -2.5544    5.9326 H         1 <0>         0.1248
     42 H12         4.8797   -2.2342    8.1160 H         1 <0>         0.1231
     43 H13         2.5127   -1.5755    8.2373 H         1 <0>         0.1259
     44 H14         1.2217   -1.2237    6.1734 H         1 <0>         0.1266
     45 H15         0.6502   -2.9602    5.1942 H         1 <0>         0.0814
     46 H16        -0.1001   -4.1927    2.5454 H         1 <0>         0.0745
     47 H17         0.6060   -4.9649    3.9996 H         1 <0>         0.0622
     48 H18        -1.9972   -5.3802    3.4340 H         1 <0>         0.0696
     49 H19        -1.5228   -5.0357    5.1302 H         1 <0>         0.0663
     50 H20        -2.6414   -3.0947    3.0332 H         1 <0>         0.0716
     51 H21        -3.1786   -3.3298    4.7261 H         1 <0>         0.0666
     52 H22        -1.4163   -2.0683    5.5909 H         1 <0>         0.0609
     53 H23        -1.4129   -1.3363    3.9614 H         1 <0>         0.0697
     54 H24        -1.1915   -3.2240    1.6321 H         1 <0>         0.1305
     55 H25        -1.7972   -0.2455    1.4335 H         1 <0>         0.1132
     56 H26        -4.2899   -1.8630    2.6688 H         1 <0>         0.0659
     57 H27        -4.3794   -0.3006    1.8207 H         1 <0>         0.0755
     58 H28        -6.8642   -1.7253    2.9208 H         1 <0>         0.0561
     59 H29        -6.7758   -0.1724    2.0553 H         1 <0>         0.0609
     60 H30        -5.7650   -3.6507    1.8899 H         1 <0>         0.3492
     61 H31        -3.1704   -3.6801    1.5664 H         1 <0>         0.3629
@<TRIPOS>BOND
     1    1    2 1
     2    1   33 1
     3    1   34 1
     4    1   35 1
     5    2    3 1
     6    2    4 1
     7    2   36 1
     8    3   37 1
     9    3   38 1
    10    3   39 1
    11    4    8 1
    12    4    5 2
    13    5    6 1
    14    5   20 1
    15    6    7 2
    16    6   15 1
    17    7    8 1
    18    7    9 1
    19    9   14 ar
    20    9   10 ar
    21   10   11 ar
    22   10   40 1
    23   11   12 ar
    24   11   41 1
    25   12   13 ar
    26   12   42 1
    27   13   14 ar
    28   13   43 1
    29   14   44 1
    30   15   19 1
    31   15   16 1
    32   15   45 1
    33   16   17 1
    34   16   46 1
    35   16   47 1
    36   17   18 1
    37   17   48 1
    38   17   49 1
    39   18   19 1
    40   18   50 1
    41   18   51 1
    42   19   52 1
    43   19   53 1
    44   20   21 2
    45   20   54 1
    46   21   22 1
    47   21   55 1
    48   22   23 1
    49   22   24 1
    50   22   32 1
    51   24   25 1
    52   24   56 1
    53   24   57 1
    54   25   26 1
    55   25   27 1
    56   25   31 1
    57   27   28 1
    58   27   58 1
    59   27   59 1
    60   28   29 2
    61   28   30 1
    62   31   60 1
    63   32   61 1
@<TRIPOS>MOLECULE
CHEMBL101512
   49    50     0     0     0
SMALL
USER_CHARGES

@<TRIPOS>ATOM
      1 C1         -0.5776    1.3361   -0.3060 C.ar      1 <0>        -0.0658
      2 C2          0.4919    2.2067   -0.3768 C.ar      1 <0>        -0.0361
      3 C3          1.7886    1.7248   -0.3153 C.ar      1 <0>        -0.0800
      4 C4          2.0238    0.3682   -0.1829 C.ar      1 <0>        -0.0521
      5 C5          0.9599   -0.5174   -0.1106 C.ar      1 <0>         0.1412
      6 C6         -0.3520   -0.0337   -0.1721 C.ar      1 <0>        -0.0678
      7 C7         -1.4932   -0.9704   -0.0953 C.2       1 <0>         0.0815
      8 C8         -2.3915   -1.0046   -1.0735 C.2       1 <0>        -0.1267
      9 C9         -2.1901   -0.2024   -2.3400 C.3       1 <0>        -0.0783
     10 C10        -2.3669   -1.1365   -3.5417 C.3       1 <0>        -0.1162
     11 C11        -3.7246   -1.8347   -3.4472 C.3       1 <0>        -0.1201
     12 C12        -3.7659   -2.7217   -2.2017 C.3       1 <0>        -0.1178
     13 C13        -3.6389   -1.8517   -0.9520 C.3       1 <0>        -0.0841
     14 F1         -1.6226   -1.7916    0.9697 F         1 <0>        -0.1309
     15 O1          1.1898   -1.8502    0.0190 O.3       1 <0>        -0.3072
     16 C14         1.4010   -2.3465    1.3423 C.3       1 <0>         0.0342
     17 C15         1.5160   -3.8716    1.3027 C.3       1 <0>         0.1215
     18 C16         1.6298   -4.4117    2.7297 C.3       1 <0>        -0.1843
     19 C17         1.6011   -5.9411    2.7000 C.3       1 <0>         0.1400
     20 H1          0.7052   -6.2776    2.1781 H         1 <0>         0.0951
     21 C18         1.5892   -6.4789    4.1323 C.3       1 <0>        -0.2190
     22 C19         1.4372   -7.9780    4.1047 C.2       1 <0>         0.4908
     23 O2          1.3467   -8.5621    3.0384 O.co2     1 <0>        -0.6802
     24 O3          1.4046   -8.6067    5.1489 O.co2     1 <0>        -0.7129
     25 O4          2.7598   -6.4262    2.0186 O.3       1 <0>        -0.5268
     26 O5          2.6784   -4.2426    0.5589 O.3       1 <0>        -0.5300
     27 Cl1         3.6532   -0.2260   -0.1078 Cl        1 <0>        -0.0338
     28 Cl2         0.2098    3.9114   -0.5442 Cl        1 <0>        -0.0497
     29 H2         -1.5877    1.7158   -0.3499 H         1 <0>         0.1492
     30 H3          2.6203    2.4115   -0.3713 H         1 <0>         0.1513
     31 H4         -2.9278    0.5986   -2.3873 H         1 <0>         0.0784
     32 H5         -1.1854    0.2204   -2.3497 H         1 <0>         0.0734
     33 H6         -2.3199   -0.5562   -4.4632 H         1 <0>         0.0674
     34 H7         -1.5732   -1.8835   -3.5414 H         1 <0>         0.0672
     35 H8         -4.5137   -1.0854   -3.3847 H         1 <0>         0.0622
     36 H9         -3.8788   -2.4487   -4.3345 H         1 <0>         0.0642
     37 H10        -4.7105   -3.2649   -2.1735 H         1 <0>         0.0680
     38 H11        -2.9391   -3.4312   -2.2331 H         1 <0>         0.0674
     39 H12        -3.5647   -2.4882   -0.0702 H         1 <0>         0.0772
     40 H13        -4.5132   -1.2061   -0.8685 H         1 <0>         0.0800
     41 H14         2.3205   -1.9232    1.7466 H         1 <0>         0.0591
     42 H15         0.5607   -2.0618    1.9755 H         1 <0>         0.0667
     43 H16         0.6301   -4.2905    0.8253 H         1 <0>         0.1072
     44 H17         2.5671   -4.0744    3.1721 H         1 <0>         0.0663
     45 H18         0.7940   -4.0441    3.3250 H         1 <0>         0.0775
     46 H19         2.5250   -6.2177    4.6262 H         1 <0>         0.0570
     47 H20         0.7548   -6.0391    4.6786 H         1 <0>         0.0619
     48 H21         3.5955   -6.1644    2.4286 H         1 <0>         0.3506
     49 H22         3.5057   -3.9035    0.9271 H         1 <0>         0.3636
@<TRIPOS>BOND
     1    1    6 ar
     2    1    2 ar
     3    1   29 1
     4    2    3 ar
     5    2   28 1
     6    3    4 ar
     7    3   30 1
     8    4    5 ar
     9    4   27 1
    10    5    6 ar
    11    5   15 1
    12    6    7 1
    13    7    8 2
    14    7   14 1
    15    8   13 1
    16    8    9 1
    17    9   10 1
    18    9   31 1
    19    9   32 1
    20   10   11 1
    21   10   33 1
    22   10   34 1
    23   11   12 1
    24   11   35 1
    25   11   36 1
    26   12   13 1
    27   12   37 1
    28   12   38 1
    29   13   39 1
    30   13   40 1
    31   15   16 1
    32   16   17 1
    33   16   41 1
    34   16   42 1
    35   17   18 1
    36   17   26 1
    37   17   43 1
    38   18   19 1
    39   18   44 1
    40   18   45 1
    41   19   20 1
    42   19   21 1
    43   19   25 1
    44   21   22 1
    45   21   46 1
    46   21   47 1
    47   22   23 2
    48   22   24 1
    49   25   48 1
    50   26   49 1
@<TRIPOS>MOLECULE
CHEMBL101512__1
   49    50     0     0     0
SMALL
USER_CHARGES

@<TRIPOS>ATOM
      1 C1          0.1489    1.4397   -0.1246 C.ar      1 <0>        -0.0662
      2 C2          1.3374    2.1301    0.0089 C.ar      1 <0>        -0.0359
      3 C3          2.5295    1.4429    0.1636 C.ar      1 <0>        -0.0797
      4 C4          2.5405    0.0600    0.1853 C.ar      1 <0>        -0.0530
      5 C5          1.3552   -0.6463    0.0524 C.ar      1 <0>         0.1410
      6 C6          0.1484    0.0451   -0.1037 C.ar      1 <0>        -0.0671
      7 C7         -1.1210   -0.6993   -0.2457 C.2       1 <0>         0.0843
      8 C8         -1.8801   -0.5191   -1.3211 C.2       1 <0>        -0.1258
      9 C9         -1.3979    0.3282   -2.4777 C.3       1 <0>        -0.0781
     10 C10        -1.5567   -0.4777   -3.7713 C.3       1 <0>        -0.1161
     11 C11        -3.0047   -0.9535   -3.8992 C.3       1 <0>        -0.1200
     12 C12        -3.3400   -1.9084   -2.7523 C.3       1 <0>        -0.1176
     13 C13        -3.2460   -1.1611   -1.4229 C.3       1 <0>        -0.0827
     14 F1         -1.5092   -1.5629    0.7181 F         1 <0>        -0.1323
     15 O1          1.3649   -2.0048    0.0731 O.3       1 <0>        -0.3080
     16 C14         1.3330   -2.6343    1.3556 C.3       1 <0>         0.0343
     17 C15         1.2277   -4.1502    1.1772 C.3       1 <0>         0.1188
     18 C16         1.3286   -4.8327    2.5428 C.3       1 <0>        -0.1829
     19 C17         1.3487   -6.3509    2.3539 C.3       1 <0>         0.1381
     20 H1          0.4750   -6.6570    1.7785 H         1 <0>         0.1047
     21 C18         1.3237   -7.0353    3.7221 C.3       1 <0>        -0.2183
     22 C19         1.2197   -8.5271    3.5356 C.2       1 <0>         0.4907
     23 O2          1.1700   -8.9991    2.4125 O.co2     1 <0>        -0.6798
     24 O3          1.1851   -9.2621    4.5078 O.co2     1 <0>        -0.7128
     25 O4          2.5361   -6.7281    1.6541 O.3       1 <0>        -0.5402
     26 O5         -0.0274   -4.4729    0.5749 O.3       1 <0>        -0.5420
     27 Cl1         4.0405   -0.7923    0.3786 Cl        1 <0>        -0.0338
     28 Cl2         1.3368    3.8659   -0.0179 Cl        1 <0>        -0.0496
     29 H2         -0.7796    1.9790   -0.2406 H         1 <0>         0.1491
     30 H3          3.4553    1.9894    0.2674 H         1 <0>         0.1515
     31 H4         -1.9941    1.2387   -2.5381 H         1 <0>         0.0778
     32 H5         -0.3483    0.5835   -2.3319 H         1 <0>         0.0729
     33 H6         -1.3040    0.1514   -4.6248 H         1 <0>         0.0669
     34 H7         -0.8913   -1.3407   -3.7459 H         1 <0>         0.0675
     35 H8         -3.6733   -0.0934   -3.8617 H         1 <0>         0.0617
     36 H9         -3.1337   -1.4701   -4.8503 H         1 <0>         0.0639
     37 H10        -4.3513   -2.2934   -2.8836 H         1 <0>         0.0672
     38 H11        -2.6325   -2.7376   -2.7510 H         1 <0>         0.0687
     39 H12        -3.3833   -1.8622   -0.5996 H         1 <0>         0.0771
     40 H13        -4.0163   -0.3910   -1.3838 H         1 <0>         0.0788
     41 H14         2.2461   -2.3951    1.9006 H         1 <0>         0.0653
     42 H15         0.4704   -2.2736    1.9159 H         1 <0>         0.0616
     43 H16         2.0381   -4.4978    0.5365 H         1 <0>         0.1153
     44 H17         2.2453   -4.5163    3.0403 H         1 <0>         0.0710
     45 H18         0.4693   -4.5538    3.1527 H         1 <0>         0.0726
     46 H19         2.2403   -6.7999    4.2629 H         1 <0>         0.0569
     47 H20         0.4647   -6.6794    4.2908 H         1 <0>         0.0624
     48 H21         3.3544   -6.4863    2.1091 H         1 <0>         0.3539
     49 H22        -0.7935   -4.1269    1.0528 H         1 <0>         0.3677
@<TRIPOS>BOND
     1    1    6 ar
     2    1    2 ar
     3    1   29 1
     4    2    3 ar
     5    2   28 1
     6    3    4 ar
     7    3   30 1
     8    4    5 ar
     9    4   27 1
    10    5    6 ar
    11    5   15 1
    12    6    7 1
    13    7    8 2
    14    7   14 1
    15    8   13 1
    16    8    9 1
    17    9   10 1
    18    9   31 1
    19    9   32 1
    20   10   11 1
    21   10   33 1
    22   10   34 1
    23   11   12 1
    24   11   35 1
    25   11   36 1
    26   12   13 1
    27   12   37 1
    28   12   38 1
    29   13   39 1
    30   13   40 1
    31   15   16 1
    32   16   17 1
    33   16   41 1
    34   16   42 1
    35   17   18 1
    36   17   26 1
    37   17   43 1
    38   18   19 1
    39   18   44 1
    40   18   45 1
    41   19   20 1
    42   19   21 1
    43   19   25 1
    44   21   22 1
    45   21   46 1
    46   21   47 1
    47   22   23 2
    48   22   24 1
    49   25   48 1
    50   26   49 1
@<TRIPOS>MOLECULE
CHEMBL101633
   51    52     0     0     0
SMALL
USER_CHARGES

@<TRIPOS>ATOM
      1 C1          0.1466    1.2366   -0.0582 C.ar      1 <0>        -0.0920
      2 C2          1.3783    1.8670   -0.0396 C.ar      1 <0>        -0.0302
      3 C3          2.5372    1.1217    0.0847 C.ar      1 <0>        -0.0987
      4 C4          2.4664   -0.2550    0.1906 C.ar      1 <0>        -0.0466
      5 C5          1.2316   -0.8886    0.1721 C.ar      1 <0>         0.1174
      6 C6          0.0714   -0.1388    0.0474 C.ar      1 <0>        -0.0685
      7 C7         -1.2706   -0.8242    0.0276 C.3       1 <0>        -0.0718
      8 C8         -1.5286   -1.4002   -1.3662 C.3       1 <0>        -0.0800
      9 C9         -1.6507   -0.2571   -2.3758 C.3       1 <0>        -0.1139
     10 C10        -1.9086   -0.8331   -3.7696 C.3       1 <0>        -0.1194
     11 C11        -3.2075   -1.6416   -3.7549 C.3       1 <0>        -0.1186
     12 C12        -3.0854   -2.7847   -2.7453 C.3       1 <0>        -0.1208
     13 C13        -2.8274   -2.2086   -1.3515 C.3       1 <0>        -0.1132
     14 O1          1.1594   -2.2422    0.2757 O.3       1 <0>        -0.3071
     15 C14         1.1578   -2.7928    1.5944 C.3       1 <0>         0.0329
     16 C15         0.9469   -4.3061    1.5149 C.3       1 <0>         0.1206
     17 C16         0.8205   -4.8783    2.9283 C.3       1 <0>        -0.1854
     18 C17         0.4858   -6.3690    2.8469 C.3       1 <0>         0.1401
     19 H1         -0.4090   -6.5079    2.2402 H         1 <0>         0.0949
     20 C18         0.2368   -6.9134    4.2549 C.3       1 <0>        -0.2192
     21 C19        -0.2122   -8.3492    4.1662 C.2       1 <0>         0.4905
     22 O2         -0.3228   -8.8872    3.0777 O.co2     1 <0>        -0.6801
     23 O3         -0.4649   -8.9728    5.1830 O.co2     1 <0>        -0.7127
     24 O4          1.5788   -7.0708    2.2512 O.3       1 <0>        -0.5267
     25 O5          2.0621   -4.9085    0.8551 O.3       1 <0>        -0.5294
     26 Cl1         3.9206   -1.1903    0.3461 Cl        1 <0>        -0.0414
     27 Cl2         1.4695    3.5954   -0.1731 Cl        1 <0>        -0.0583
     28 H2         -0.7571    1.8207   -0.1508 H         1 <0>         0.1427
     29 H3          3.4976    1.6155    0.0986 H         1 <0>         0.1458
     30 H4         -1.2777   -1.6305    0.7610 H         1 <0>         0.0805
     31 H5         -2.0504   -0.1032    0.2728 H         1 <0>         0.0764
     32 H6         -0.7000   -2.0489   -1.6503 H         1 <0>         0.0816
     33 H7         -2.4793    0.3916   -2.0917 H         1 <0>         0.0597
     34 H8         -0.7253    0.3188   -2.3863 H         1 <0>         0.0598
     35 H9         -1.9956   -0.0188   -4.4889 H         1 <0>         0.0581
     36 H10        -1.0801   -1.4819   -4.0537 H         1 <0>         0.0617
     37 H11        -4.0361   -0.9929   -3.4708 H         1 <0>         0.0589
     38 H12        -3.3913   -2.0520   -4.7479 H         1 <0>         0.0585
     39 H13        -4.0107   -3.3606   -2.7348 H         1 <0>         0.0616
     40 H14        -2.2568   -3.4334   -3.0294 H         1 <0>         0.0641
     41 H15        -2.7404   -3.0230   -0.6322 H         1 <0>         0.0657
     42 H16        -3.6560   -1.5599   -1.0674 H         1 <0>         0.0601
     43 H17         2.1128   -2.5838    2.0765 H         1 <0>         0.0583
     44 H18         0.3518   -2.3436    2.1747 H         1 <0>         0.0613
     45 H19         0.0359   -4.5170    0.9547 H         1 <0>         0.1066
     46 H20         1.7631   -4.7460    3.4594 H         1 <0>         0.0661
     47 H21         0.0263   -4.3562    3.4620 H         1 <0>         0.0767
     48 H22         1.1579   -6.8559    4.8348 H         1 <0>         0.0569
     49 H23        -0.5370   -6.3202    4.7423 H         1 <0>         0.0615
     50 H24         2.4100   -6.9912    2.7390 H         1 <0>         0.3507
     51 H25         2.9084   -4.7613    1.2993 H         1 <0>         0.3642
@<TRIPOS>BOND
     1    1    6 ar
     2    1    2 ar
     3    1   28 1
     4    2    3 ar
     5    2   27 1
     6    3    4 ar
     7    3   29 1
     8    4    5 ar
     9    4   26 1
    10    5    6 ar
    11    5   14 1
    12    6    7 1
    13    7    8 1
    14    7   30 1
    15    7   31 1
    16    8   13 1
    17    8    9 1
    18    8   32 1
    19    9   10 1
    20    9   33 1
    21    9   34 1
    22   10   11 1
    23   10   35 1
    24   10   36 1
    25   11   12 1
    26   11   37 1
    27   11   38 1
    28   12   13 1
    29   12   39 1
    30   12   40 1
    31   13   41 1
    32   13   42 1
    33   14   15 1
    34   15   16 1
    35   15   43 1
    36   15   44 1
    37   16   17 1
    38   16   25 1
    39   16   45 1
    40   17   18 1
    41   17   46 1
    42   17   47 1
    43   18   19 1
    44   18   20 1
    45   18   24 1
    46   20   21 1
    47   20   48 1
    48   20   49 1
    49   21   22 2
    50   21   23 1
    51   24   50 1
    52   25   51 1
@<TRIPOS>MOLECULE
CHEMBL101633__1
   51    52     0     0     0
SMALL
USER_CHARGES

@<TRIPOS>ATOM
      1 C1          0.2516    1.2631   -0.1479 C.ar      1 <0>        -0.0925
      2 C2          1.5139    1.8130   -0.0101 C.ar      1 <0>        -0.0299
      3 C3          2.6070    0.9940    0.2101 C.ar      1 <0>        -0.0984
      4 C4          2.4397   -0.3759    0.2930 C.ar      1 <0>        -0.0475
      5 C5          1.1740   -0.9287    0.1549 C.ar      1 <0>         0.1170
      6 C6          0.0799   -0.1052   -0.0658 C.ar      1 <0>        -0.0677
      7 C7         -1.2954   -0.7028   -0.2155 C.3       1 <0>        -0.0695
      8 C8         -1.4605   -1.2538   -1.6332 C.3       1 <0>        -0.0780
      9 C9         -1.4205   -0.0996   -2.6368 C.3       1 <0>        -0.1146
     10 C10        -1.5856   -0.6505   -4.0546 C.3       1 <0>        -0.1192
     11 C11        -2.9274   -1.3772   -4.1663 C.3       1 <0>        -0.1188
     12 C12        -2.9674   -2.5314   -3.1627 C.3       1 <0>        -0.1200
     13 C13        -2.8023   -1.9804   -1.7449 C.3       1 <0>        -0.1112
     14 O1          1.0069   -2.2755    0.2356 O.3       1 <0>        -0.3077
     15 C14         0.8503   -2.8327    1.5421 C.3       1 <0>         0.0339
     16 C15         0.5567   -4.3298    1.4262 C.3       1 <0>         0.1181
     17 C16         0.5067   -4.9494    2.8242 C.3       1 <0>        -0.1833
     18 C17         0.3374   -6.4653    2.7045 C.3       1 <0>         0.1380
     19 H1         -0.5420   -6.6860    2.0995 H         1 <0>         0.1045
     20 C18         0.1624   -7.0707    4.0987 C.3       1 <0>        -0.2185
     21 C19        -0.1265   -8.5444    3.9737 C.2       1 <0>         0.4905
     22 O2         -0.1869   -9.0625    2.8717 O.co2     1 <0>        -0.6797
     23 O3         -0.2999   -9.2186    4.9747 O.co2     1 <0>        -0.7126
     24 O4          1.4957   -7.0263    2.0835 O.3       1 <0>        -0.5403
     25 O5         -0.7015   -4.5195    0.7758 O.3       1 <0>        -0.5412
     26 Cl1         3.8113   -1.4036    0.5688 Cl        1 <0>        -0.0414
     27 Cl2         1.7263    3.5328   -0.1144 Cl        1 <0>        -0.0582
     28 H2         -0.6010    1.9046   -0.3154 H         1 <0>         0.1427
     29 H3          3.5915    1.4250    0.3170 H         1 <0>         0.1461
     30 H4         -1.4208   -1.5109    0.5053 H         1 <0>         0.0798
     31 H5         -2.0471    0.0655   -0.0344 H         1 <0>         0.0750
     32 H6         -0.6508   -1.9509   -1.8488 H         1 <0>         0.0827
     33 H7         -2.2303    0.5975   -2.4213 H         1 <0>         0.0590
     34 H8         -0.4646    0.4181   -2.5572 H         1 <0>         0.0591
     35 H9         -1.5571    0.1718   -4.7695 H         1 <0>         0.0575
     36 H10        -0.7759   -1.3476   -4.2701 H         1 <0>         0.0616
     37 H11        -3.7372   -0.6801   -3.9507 H         1 <0>         0.0584
     38 H12        -3.0451   -1.7697   -5.1763 H         1 <0>         0.0580
     39 H13        -3.9233   -3.0491   -3.2423 H         1 <0>         0.0606
     40 H14        -2.1577   -3.2285   -3.3782 H         1 <0>         0.0644
     41 H15        -2.8308   -2.8027   -1.0300 H         1 <0>         0.0681
     42 H16        -3.6121   -1.2833   -1.5294 H         1 <0>         0.0577
     43 H17         1.7675   -2.6854    2.1123 H         1 <0>         0.0646
     44 H18         0.0228   -2.3385    2.0511 H         1 <0>         0.0561
     45 H19         1.3428   -4.8102    0.8438 H         1 <0>         0.1158
     46 H20         1.4336   -4.7280    3.3532 H         1 <0>         0.0709
     47 H21        -0.3354   -4.5323    3.3766 H         1 <0>         0.0720
     48 H22         1.0768   -6.9272    4.6744 H         1 <0>         0.0568
     49 H23        -0.6676   -6.5794    4.6065 H         1 <0>         0.0621
     50 H24         2.3174   -6.8684    2.5683 H         1 <0>         0.3542
     51 H25        -1.4368   -4.0549    1.1985 H         1 <0>         0.3650
@<TRIPOS>BOND
     1    1    6 ar
     2    1    2 ar
     3    1   28 1
     4    2    3 ar
     5    2   27 1
     6    3    4 ar
     7    3   29 1
     8    4    5 ar
     9    4   26 1
    10    5    6 ar
    11    5   14 1
    12    6    7 1
    13    7    8 1
    14    7   30 1
    15    7   31 1
    16    8   13 1
    17    8    9 1
    18    8   32 1
    19    9   10 1
    20    9   33 1
    21    9   34 1
    22   10   11 1
    23   10   35 1
    24   10   36 1
    25   11   12 1
    26   11   37 1
    27   11   38 1
    28   12   13 1
    29   12   39 1
    30   12   40 1
    31   13   41 1
    32   13   42 1
    33   14   15 1
    34   15   16 1
    35   15   43 1
    36   15   44 1
    37   16   17 1
    38   16   25 1
    39   16   45 1
    40   17   18 1
    41   17   46 1
    42   17   47 1
    43   18   19 1
    44   18   20 1
    45   18   24 1
    46   20   21 1
    47   20   48 1
    48   20   49 1
    49   21   22 2
    50   21   23 1
    51   24   50 1
    52   25   51 1
@<TRIPOS>MOLECULE
CHEMBL443275
   67    69     0     0     0
SMALL
USER_CHARGES

@<TRIPOS>ATOM
      1 C1         -0.1854    0.7850   -0.8589 C.3       1 <0>        -0.1129
      2 C2         -0.1055   -0.6833   -0.5291 C.ar      1 <0>        -0.0879
      3 C3         -0.0546   -1.6177   -1.5472 C.ar      1 <0>        -0.1133
      4 C4          0.0182   -2.9640   -1.2475 C.ar      1 <0>        -0.0971
      5 C5          0.0407   -3.3786    0.0764 C.ar      1 <0>         0.0974
      6 C6         -0.0100   -2.4394    1.0959 C.ar      1 <0>        -0.0746
      7 C7         -0.0775   -1.0935    0.7908 C.ar      1 <0>        -0.1104
      8 C8          0.0142   -2.8862    2.5349 C.3       1 <0>        -0.0053
      9 C9         -1.3014   -2.5489    3.1879 C.ar      1 <0>        -0.0708
     10 C10        -1.6496   -1.2275    3.3977 C.ar      1 <0>        -0.0875
     11 C11        -2.8560   -0.9170    3.9959 C.ar      1 <0>        -0.1532
     12 C12        -3.7161   -1.9298    4.3853 C.ar      1 <0>         0.0908
     13 C13        -3.3663   -3.2528    4.1746 C.ar      1 <0>        -0.1491
     14 C14        -2.1617   -3.5608    3.5714 C.ar      1 <0>        -0.0798
     15 F1         -4.8956   -1.6274    4.9706 F         1 <0>        -0.1430
     16 C15         1.1478   -2.1704    3.2722 C.3       1 <0>        -0.0716
     17 C16         2.4856   -2.5293    2.6221 C.3       1 <0>        -0.1154
     18 C17         3.6192   -1.8136    3.3593 C.3       1 <0>        -0.1167
     19 C18         3.6307   -2.2516    4.8252 C.3       1 <0>        -0.1217
     20 C19         2.2930   -1.8927    5.4753 C.3       1 <0>        -0.1170
     21 C20         1.1594   -2.6085    4.7381 C.3       1 <0>        -0.1158
     22 O1          0.1118   -4.7028    0.3739 O.3       1 <0>        -0.3177
     23 C21         1.4122   -5.2950    0.3906 C.3       1 <0>         0.0330
     24 C22         1.2835   -6.8017    0.6232 C.3       1 <0>         0.1186
     25 C23         2.6772   -7.4167    0.7655 C.3       1 <0>        -0.1845
     26 C24         2.5466   -8.8990    1.1215 C.3       1 <0>         0.1398
     27 H1          1.9314   -9.0053    2.0149 H         1 <0>         0.0946
     28 C25         3.9353   -9.4842    1.3860 C.3       1 <0>        -0.2190
     29 C26         3.7986  -10.9097    1.8554 C.2       1 <0>         0.4907
     30 O2          2.6930  -11.4111    1.9679 O.co2     1 <0>        -0.6803
     31 O3          4.7937  -11.5616    2.1226 O.co2     1 <0>        -0.7127
     32 O4          1.9343   -9.5975    0.0356 O.3       1 <0>        -0.5268
     33 O5          0.6103   -7.3992   -0.4867 O.3       1 <0>        -0.5313
     34 C27         0.0725   -3.9818   -2.3575 C.3       1 <0>        -0.1161
     35 H2          0.8216    1.1938   -0.9432 H         1 <0>         0.0692
     36 H3         -0.7113    0.9169   -1.8044 H         1 <0>         0.0655
     37 H4         -0.7241    1.3064   -0.0676 H         1 <0>         0.0650
     38 H5         -0.0722   -1.2944   -2.5775 H         1 <0>         0.1226
     39 H6         -0.1129   -0.3615    1.5842 H         1 <0>         0.1235
     40 H7          0.1758   -3.9633    2.5782 H         1 <0>         0.0968
     41 H8         -0.9784   -0.4377    3.0942 H         1 <0>         0.1297
     42 H9         -3.1277    0.1153    4.1601 H         1 <0>         0.1322
     43 H10        -4.0362   -4.0436    4.4782 H         1 <0>         0.1352
     44 H11        -1.8905   -4.5926    3.4029 H         1 <0>         0.1354
     45 H12         0.9942   -1.0928    3.2162 H         1 <0>         0.0720
     46 H13         2.6392   -3.6070    2.6781 H         1 <0>         0.0633
     47 H14         2.4773   -2.2173    1.5777 H         1 <0>         0.0618
     48 H15         4.5722   -2.0693    2.8962 H         1 <0>         0.0607
     49 H16         3.4655   -0.7359    3.3033 H         1 <0>         0.0592
     50 H17         3.7844   -3.3293    4.8812 H         1 <0>         0.0635
     51 H18         4.4383   -1.7417    5.3505 H         1 <0>         0.0590
     52 H19         2.3012   -2.2048    6.5197 H         1 <0>         0.0609
     53 H20         2.1394   -0.8151    5.4193 H         1 <0>         0.0587
     54 H21         0.2064   -2.3528    5.2012 H         1 <0>         0.0643
     55 H22         1.3130   -3.6862    4.7940 H         1 <0>         0.0650
     56 H23         1.9055   -5.1156   -0.5647 H         1 <0>         0.0528
     57 H24         2.0026   -4.8527    1.1931 H         1 <0>         0.0609
     58 H25         0.7123   -6.9813    1.5341 H         1 <0>         0.1050
     59 H26         3.2169   -7.3154   -0.1760 H         1 <0>         0.0652
     60 H27         3.2233   -6.9002    1.5548 H         1 <0>         0.0762
     61 H28         4.5213   -9.4588    0.4673 H         1 <0>         0.0567
     62 H29         4.4375   -8.8955    2.1536 H         1 <0>         0.0614
     63 H30         2.4285   -9.5458   -0.7940 H         1 <0>         0.3504
     64 H31         1.0630   -7.2787   -1.3326 H         1 <0>         0.3630
     65 H32         1.1118   -4.1719   -2.6256 H         1 <0>         0.0663
     66 H33        -0.3918   -4.9095   -2.0230 H         1 <0>         0.0799
     67 H34        -0.4630   -3.6003   -3.2269 H         1 <0>         0.0657
@<TRIPOS>BOND
     1    1    2 1
     2    1   35 1
     3    1   36 1
     4    1   37 1
     5    2    7 ar
     6    2    3 ar
     7    3    4 ar
     8    3   38 1
     9    4    5 ar
    10    4   34 1
    11    5    6 ar
    12    5   22 1
    13    6    7 ar
    14    6    8 1
    15    7   39 1
    16    8    9 1
    17    8   16 1
    18    8   40 1
    19    9   14 ar
    20    9   10 ar
    21   10   11 ar
    22   10   41 1
    23   11   12 ar
    24   11   42 1
    25   12   13 ar
    26   12   15 1
    27   13   14 ar
    28   13   43 1
    29   14   44 1
    30   16   21 1
    31   16   17 1
    32   16   45 1
    33   17   18 1
    34   17   46 1
    35   17   47 1
    36   18   19 1
    37   18   48 1
    38   18   49 1
    39   19   20 1
    40   19   50 1
    41   19   51 1
    42   20   21 1
    43   20   52 1
    44   20   53 1
    45   21   54 1
    46   21   55 1
    47   22   23 1
    48   23   24 1
    49   23   56 1
    50   23   57 1
    51   24   25 1
    52   24   33 1
    53   24   58 1
    54   25   26 1
    55   25   59 1
    56   25   60 1
    57   26   27 1
    58   26   28 1
    59   26   32 1
    60   28   29 1
    61   28   61 1
    62   28   62 1
    63   29   30 2
    64   29   31 1
    65   32   63 1
    66   33   64 1
    67   34   65 1
    68   34   66 1
    69   34   67 1
@<TRIPOS>MOLECULE
CHEMBL443275__1
   67    69     0     0     0
SMALL
USER_CHARGES

@<TRIPOS>ATOM
      1 C1         -0.1675    0.7528   -0.9304 C.3       1 <0>        -0.1129
      2 C2         -0.0927   -0.7122   -0.5851 C.ar      1 <0>        -0.0877
      3 C3         -0.0526   -1.6578   -1.5933 C.ar      1 <0>        -0.1129
      4 C4          0.0155   -3.0012   -1.2795 C.ar      1 <0>        -0.0980
      5 C5          0.0442   -3.4015    0.0487 C.ar      1 <0>         0.0964
      6 C6          0.0044   -2.4510    1.0582 C.ar      1 <0>        -0.0738
      7 C7         -0.0585   -1.1082    0.7390 C.ar      1 <0>        -0.1108
      8 C8          0.0354   -2.8824    2.5018 C.3       1 <0>        -0.0051
      9 C9         -1.2745   -2.5316    3.1591 C.ar      1 <0>        -0.0708
     10 C10        -1.6152   -1.2065    3.3565 C.ar      1 <0>        -0.0881
     11 C11        -2.8165   -0.8836    3.9588 C.ar      1 <0>        -0.1539
     12 C12        -3.6788   -1.8880    4.3645 C.ar      1 <0>         0.0905
     13 C13        -3.3365   -3.2149    4.1663 C.ar      1 <0>        -0.1496
     14 C14        -2.1371   -3.5352    3.5591 C.ar      1 <0>        -0.0784
     15 F1         -4.8532   -1.5736    4.9538 F         1 <0>        -0.1433
     16 C15         1.1770   -2.1641    3.2243 C.3       1 <0>        -0.0719
     17 C16         2.5084   -2.5322    2.5665 C.3       1 <0>        -0.1146
     18 C17         3.6499   -1.8140    3.2890 C.3       1 <0>        -0.1172
     19 C18         3.6719   -2.2403    4.7582 C.3       1 <0>        -0.1211
     20 C19         2.3404   -1.8722    5.4160 C.3       1 <0>        -0.1174
     21 C20         1.1989   -2.5905    4.6935 C.3       1 <0>        -0.1150
     22 O1          0.1108   -4.7227    0.3601 O.3       1 <0>        -0.3174
     23 C21         1.4085   -5.3210    0.3757 C.3       1 <0>         0.0337
     24 C22         1.2734   -6.8259    0.6164 C.3       1 <0>         0.1164
     25 C23         2.6500   -7.4850    0.5093 C.3       1 <0>        -0.1837
     26 C24         2.4990   -9.0031    0.6259 C.3       1 <0>         0.1375
     27 H1          1.9714   -9.2459    1.5483 H         1 <0>         0.1040
     28 C25         3.8837   -9.6535    0.6441 C.3       1 <0>        -0.2184
     29 C26         3.7400  -11.1346    0.8820 C.2       1 <0>         0.4904
     30 O2          2.6326  -11.6246    1.0239 O.co2     1 <0>        -0.6799
     31 O3          4.7310  -11.8429    0.9326 O.co2     1 <0>        -0.7124
     32 O4          1.7562   -9.4951   -0.4913 O.3       1 <0>        -0.5401
     33 O5          0.7366   -7.0532    1.9211 O.3       1 <0>        -0.5437
     34 C27         0.0581   -4.0312   -2.3787 C.3       1 <0>        -0.1160
     35 H2          0.8408    1.1557   -1.0253 H         1 <0>         0.0693
     36 H3         -0.6987    0.8770   -1.8740 H         1 <0>         0.0656
     37 H4         -0.6988    1.2853   -0.1415 H         1 <0>         0.0649
     38 H5         -0.0750   -1.3457   -2.6270 H         1 <0>         0.1229
     39 H6         -0.0854   -0.3676    1.5245 H         1 <0>         0.1234
     40 H7          0.1921   -3.9597    2.5558 H         1 <0>         0.0994
     41 H8         -0.9423   -0.4232    3.0403 H         1 <0>         0.1292
     42 H9         -3.0823    0.1517    4.1132 H         1 <0>         0.1318
     43 H10        -4.0083   -3.9991    4.4827 H         1 <0>         0.1349
     44 H11        -1.8719   -4.5700    3.4003 H         1 <0>         0.1375
     45 H12         1.0260   -1.0865    3.1609 H         1 <0>         0.0715
     46 H13         2.6593   -3.6099    2.6299 H         1 <0>         0.0622
     47 H14         2.4928   -2.2285    1.5198 H         1 <0>         0.0618
     48 H15         4.5985   -2.0763    2.8204 H         1 <0>         0.0605
     49 H16         3.4990   -0.7364    3.2256 H         1 <0>         0.0593
     50 H17         3.8228   -3.3180    4.8217 H         1 <0>         0.0629
     51 H18         4.4851   -1.7287    5.2729 H         1 <0>         0.0588
     52 H19         2.3560   -2.1760    6.4627 H         1 <0>         0.0607
     53 H20         2.1895   -0.7946    5.3526 H         1 <0>         0.0587
     54 H21         0.2503   -2.3282    5.1621 H         1 <0>         0.0643
     55 H22         1.3498   -3.6681    4.7569 H         1 <0>         0.0649
     56 H23         1.8994   -5.1489   -0.5822 H         1 <0>         0.0589
     57 H24         2.0036   -4.8773    1.1738 H         1 <0>         0.0560
     58 H25         0.6060   -7.2549   -0.1309 H         1 <0>         0.1135
     59 H26         3.0975   -7.2373   -0.4532 H         1 <0>         0.0704
     60 H27         3.2907   -7.1209    1.3124 H         1 <0>         0.0719
     61 H28         4.3766   -9.4855   -0.3135 H         1 <0>         0.0567
     62 H29         4.4813   -9.2136    1.4425 H         1 <0>         0.0621
     63 H30         2.1676   -9.3143   -1.3475 H         1 <0>         0.3539
     64 H31         1.2800   -6.6973    2.6375 H         1 <0>         0.3661
     65 H32         1.0948   -4.2292   -2.6511 H         1 <0>         0.0682
     66 H33        -0.4086   -4.9529   -2.0312 H         1 <0>         0.0761
     67 H34        -0.4810   -3.6565   -3.2488 H         1 <0>         0.0669
@<TRIPOS>BOND
     1    1    2 1
     2    1   35 1
     3    1   36 1
     4    1   37 1
     5    2    7 ar
     6    2    3 ar
     7    3    4 ar
     8    3   38 1
     9    4    5 ar
    10    4   34 1
    11    5    6 ar
    12    5   22 1
    13    6    7 ar
    14    6    8 1
    15    7   39 1
    16    8    9 1
    17    8   16 1
    18    8   40 1
    19    9   14 ar
    20    9   10 ar
    21   10   11 ar
    22   10   41 1
    23   11   12 ar
    24   11   42 1
    25   12   13 ar
    26   12   15 1
    27   13   14 ar
    28   13   43 1
    29   14   44 1
    30   16   21 1
    31   16   17 1
    32   16   45 1
    33   17   18 1
    34   17   46 1
    35   17   47 1
    36   18   19 1
    37   18   48 1
    38   18   49 1
    39   19   20 1
    40   19   50 1
    41   19   51 1
    42   20   21 1
    43   20   52 1
    44   20   53 1
    45   21   54 1
    46   21   55 1
    47   22   23 1
    48   23   24 1
    49   23   56 1
    50   23   57 1
    51   24   25 1
    52   24   33 1
    53   24   58 1
    54   25   26 1
    55   25   59 1
    56   25   60 1
    57   26   27 1
    58   26   28 1
    59   26   32 1
    60   28   29 1
    61   28   61 1
    62   28   62 1
    63   29   30 2
    64   29   31 1
    65   32   63 1
    66   33   64 1
    67   34   65 1
    68   34   66 1
    69   34   67 1
@<TRIPOS>MOLECULE
CHEMBL443275__2
   67    69     0     0     0
SMALL
USER_CHARGES

@<TRIPOS>ATOM
      1 C1          0.0619    1.3964   -0.1681 C.3       1 <0>        -0.1130
      2 C2          0.0694   -0.1096   -0.1137 C.ar      1 <0>        -0.0873
      3 C3          0.0876   -0.8426   -1.2862 C.ar      1 <0>        -0.1140
      4 C4          0.0940   -2.2230   -1.2390 C.ar      1 <0>        -0.0940
      5 C5          0.0826   -2.8742   -0.0138 C.ar      1 <0>         0.0961
      6 C6          0.0648   -2.1367    1.1608 C.ar      1 <0>        -0.0756
      7 C7          0.0637   -0.7560    1.1083 C.ar      1 <0>        -0.1105
      8 C8          0.0523   -2.8407    2.4932 C.3       1 <0>        -0.0070
      9 C9          1.3426   -2.5626    3.2204 C.ar      1 <0>        -0.0743
     10 C10         1.6156   -1.2876    3.6798 C.ar      1 <0>        -0.0869
     11 C11         2.7983   -1.0314    4.3472 C.ar      1 <0>        -0.1512
     12 C12         3.7100   -2.0524    4.5557 C.ar      1 <0>         0.0922
     13 C13         3.4356   -3.3290    4.0952 C.ar      1 <0>        -0.1466
     14 C14         2.2498   -3.5839    3.4327 C.ar      1 <0>        -0.0879
     15 F1          4.8668   -1.8031    5.2077 F         1 <0>        -0.1416
     16 C15        -1.1239   -2.3310    3.3284 C.3       1 <0>        -0.0684
     17 C16        -1.1366   -3.0457    4.6811 C.3       1 <0>        -0.1162
     18 C17        -2.3128   -2.5360    5.5163 C.3       1 <0>        -0.1168
     19 C18        -3.6228   -2.8184    4.7780 C.3       1 <0>        -0.1210
     20 C19        -3.6101   -2.1036    3.4253 C.3       1 <0>        -0.1169
     21 C20        -2.4339   -2.6133    2.5901 C.3       1 <0>        -0.1132
     22 O1          0.0884   -4.2323    0.0352 O.3       1 <0>        -0.3175
     23 C21         1.3643   -4.8746    0.0737 C.3       1 <0>         0.0334
     24 C22         1.1704   -6.3914    0.1260 C.3       1 <0>         0.1189
     25 C23         2.5295   -7.0739    0.2927 C.3       1 <0>        -0.1853
     26 C24         2.3256   -8.5798    0.4701 C.3       1 <0>         0.1401
     27 H1          1.6445   -8.7588    1.3020 H         1 <0>         0.0947
     28 C25         3.6720   -9.2460    0.7609 C.3       1 <0>        -0.2193
     29 C26         3.4557  -10.7078    1.0567 C.2       1 <0>         0.4908
     30 O2          2.3291  -11.1736    1.0367 O.co2     1 <0>        -0.6804
     31 O3          4.4072  -11.4246    1.3159 O.co2     1 <0>        -0.7125
     32 O4          1.7708   -9.1296   -0.7265 O.3       1 <0>        -0.5267
     33 O5          0.5598   -6.8357   -1.0872 O.3       1 <0>        -0.5309
     34 C27         0.1129   -3.0212   -2.5171 C.3       1 <0>        -0.1149
     35 H2          1.0878    1.7648   -0.1736 H         1 <0>         0.0690
     36 H3         -0.4469    1.7247   -1.0744 H         1 <0>         0.0656
     37 H4         -0.4604    1.7889    0.7044 H         1 <0>         0.0652
     38 H5          0.0965   -0.3352   -2.2395 H         1 <0>         0.1228
     39 H6          0.0539   -0.1813    2.0227 H         1 <0>         0.1233
     40 H7         -0.0520   -3.9142    2.3359 H         1 <0>         0.0979
     41 H8          0.9044   -0.4913    3.5167 H         1 <0>         0.1305
     42 H9          3.0115   -0.0352    4.7056 H         1 <0>         0.1329
     43 H10         4.1461   -4.1261    4.2570 H         1 <0>         0.1372
     44 H11         2.0335   -4.5806    3.0773 H         1 <0>         0.1329
     45 H12        -1.0196   -1.2574    3.4857 H         1 <0>         0.0704
     46 H13        -1.2409   -4.1193    4.5238 H         1 <0>         0.0652
     47 H14        -0.2033   -2.8446    5.2071 H         1 <0>         0.0634
     48 H15        -2.3218   -3.0452    6.4800 H         1 <0>         0.0603
     49 H16        -2.2085   -1.4625    5.6736 H         1 <0>         0.0584
     50 H17        -3.7271   -3.8919    4.6207 H         1 <0>         0.0628
     51 H18        -4.4608   -2.4552    5.3730 H         1 <0>         0.0578
     52 H19        -4.5434   -2.3047    2.8993 H         1 <0>         0.0599
     53 H20        -3.5058   -1.0300    3.5826 H         1 <0>         0.0579
     54 H21        -2.4249   -2.1041    1.6264 H         1 <0>         0.0634
     55 H22        -2.5382   -3.6869    2.4328 H         1 <0>         0.0659
     56 H23         1.9307   -4.6114   -0.8197 H         1 <0>         0.0524
     57 H24         1.9094   -4.5473    0.9590 H         1 <0>         0.0593
     58 H25         0.5296   -6.6468    0.9700 H         1 <0>         0.1050
     59 H26         3.1387   -6.8915   -0.5925 H         1 <0>         0.0656
     60 H27         3.0339   -6.6697    1.1704 H         1 <0>         0.0758
     61 H28         4.3231   -9.1434   -0.1072 H         1 <0>         0.0567
     62 H29         4.1364   -8.7659    1.6222 H         1 <0>         0.0613
     63 H30         2.3249   -9.0069   -1.5095 H         1 <0>         0.3505
     64 H31         1.0761   -6.6413   -1.8814 H         1 <0>         0.3635
     65 H32         1.1450   -3.2084   -2.8134 H         1 <0>         0.0661
     66 H33        -0.3981   -3.9711   -2.3599 H         1 <0>         0.0796
     67 H34        -0.3947   -2.4613   -3.3026 H         1 <0>         0.0652
@<TRIPOS>BOND
     1    1    2 1
     2    1   35 1
     3    1   36 1
     4    1   37 1
     5    2    7 ar
     6    2    3 ar
     7    3    4 ar
     8    3   38 1
     9    4    5 ar
    10    4   34 1
    11    5    6 ar
    12    5   22 1
    13    6    7 ar
    14    6    8 1
    15    7   39 1
    16    8    9 1
    17    8   16 1
    18    8   40 1
    19    9   14 ar
    20    9   10 ar
    21   10   11 ar
    22   10   41 1
    23   11   12 ar
    24   11   42 1
    25   12   13 ar
    26   12   15 1
    27   13   14 ar
    28   13   43 1
    29   14   44 1
    30   16   21 1
    31   16   17 1
    32   16   45 1
    33   17   18 1
    34   17   46 1
    35   17   47 1
    36   18   19 1
    37   18   48 1
    38   18   49 1
    39   19   20 1
    40   19   50 1
    41   19   51 1
    42   20   21 1
    43   20   52 1
    44   20   53 1
    45   21   54 1
    46   21   55 1
    47   22   23 1
    48   23   24 1
    49   23   56 1
    50   23   57 1
    51   24   25 1
    52   24   33 1
    53   24   58 1
    54   25   26 1
    55   25   59 1
    56   25   60 1
    57   26   27 1
    58   26   28 1
    59   26   32 1
    60   28   29 1
    61   28   61 1
    62   28   62 1
    63   29   30 2
    64   29   31 1
    65   32   63 1
    66   33   64 1
    67   34   65 1
    68   34   66 1
    69   34   67 1
