@<TRIPOS>MOLECULE
3CCW-4HI
 67 69 0 0 0
SMALL
SF_CHARGES


@<TRIPOS>ATOM
1    N       -14.2130    7.4770   45.5500  N.pl3      1 SUBUNIT     -0.2484
2    N       -15.7600    8.5480   46.7000  N.2        1 SUBUNIT     -0.5189
3    C       -19.3110    6.9570   48.5760  C.3        1 SUBUNIT      0.1798
4    C       -14.5490    8.6500   46.1400  C.2        1 SUBUNIT      0.3601
5    C       -15.3620    5.2000   45.2940  C.3        1 SUBUNIT     -0.0009
6    C       -12.9650    7.2210   44.8150  C.3        1 SUBUNIT      0.1337
7    C       -13.1670    7.7950   43.4070  C.3        1 SUBUNIT     -0.0965
8    C       -12.5560    7.9950   40.9970  C.3        1 SUBUNIT     -0.1007
9    C       -14.3070    4.3850   46.0420  C.3        1 SUBUNIT     -0.1125
10   C       -11.8250   11.1370   46.9350  C.2        1 SUBUNIT     -0.1225
11   C       -20.6090    4.9650   49.3150  C.2        1 SUBUNIT     -0.1121
12   C       -20.7300    3.7310   49.9480  C.2        1 SUBUNIT     -0.1099
13   C       -14.3100   11.0670   45.6570  C.2        1 SUBUNIT     -0.1174
14   C       -13.5910   12.2590   45.7270  C.2        1 SUBUNIT     -0.1225
15   C       -18.2710    5.0400   49.8760  C.2        1 SUBUNIT     -0.1121
16   O       -18.1900    6.1200   46.0850  O.2        1 SUBUNIT     -0.5559
17   C       -17.4980    6.7430   46.8860  C.2        1 SUBUNIT      0.6348
18   N       -17.9750    7.1730   48.0490  N.am       1 SUBUNIT     -0.5877
19   C       -19.3870    5.6160   49.2710  C.2        1 SUBUNIT     -0.0541
20   C       -18.3900    3.8070   50.5130  C.2        1 SUBUNIT     -0.1099
21   C       -19.6170    3.1510   50.5480  C.2        1 SUBUNIT     -0.1113
22   C       -16.1990    7.3140   46.4610  C.2        1 SUBUNIT      0.2168
23   C       -15.2460    6.6210   45.7200  C.2        1 SUBUNIT      0.0243
24   C       -15.2970    5.0090   43.7820  C.3        1 SUBUNIT     -0.1125
25   C       -13.7730    9.9080   46.2130  C.2        1 SUBUNIT     -0.0497
26   C       -12.3500   12.2960   46.3670  C.2        1 SUBUNIT      0.1281
27   F       -11.6550   13.4490   46.4290  F          1 SUBUNIT     -0.2038
28   C       -12.5420    9.9450   46.8700  C.2        1 SUBUNIT     -0.1174
29   C       -12.0800    7.5030   42.3610  C.3        1 SUBUNIT      0.2256
30   O       -11.8150    6.1130   42.2140  O.3        1 SUBUNIT     -0.5694
31   C       -12.6680    9.5140   40.8890  C.3        1 SUBUNIT      0.2244
32   O       -11.4080   10.0990   41.1230  O.3        1 SUBUNIT     -0.5690
33   C       -13.1250    9.8910   39.4840  C.3        1 SUBUNIT     -0.1091
34   C       -13.5930   11.3300   39.4420  C.2        1 SUBUNIT      0.7589
35   O       -12.8540   12.1870   38.8910  O.co2      1 SUBUNIT     -0.8932
36   O       -14.7000   11.5990   39.9710  O.co2      1 SUBUNIT     -0.8932
37   H       -19.5432    7.7567   49.2871  H          1 SUBUNIT      0.0255
38   H       -20.0260    6.9859   47.7472  H          1 SUBUNIT      0.0255
39   H       -16.3641    4.8516   45.5650  H          1 SUBUNIT      0.0400
40   H       -12.1298    7.7179   45.3195  H          1 SUBUNIT      0.0310
41   H       -12.7762    6.1433   44.7703  H          1 SUBUNIT      0.0310
42   H       -14.1102    7.3937   43.0217  H          1 SUBUNIT      0.0475
43   H       -13.2454    8.8828   43.5047  H          1 SUBUNIT      0.0475
44   H       -11.8464    7.6473   40.2390  H          1 SUBUNIT      0.0487
45   H       -13.5424    7.5622   40.8001  H          1 SUBUNIT      0.0487
46   H       -13.2987    4.7483   45.8177  H          1 SUBUNIT      0.0503
47   H       -14.3545    3.3281   45.7595  H          1 SUBUNIT      0.0503
48   H       -14.4553    4.4509   47.1249  H          1 SUBUNIT      0.0503
49   H       -10.8666   11.1627   47.4234  H          1 SUBUNIT      0.1097
50   H       -21.4698    5.4187   48.8556  H          1 SUBUNIT      0.1095
51   H       -21.6806    3.2275   49.9733  H          1 SUBUNIT      0.1088
52   H       -15.2727   11.0419   45.1771  H          1 SUBUNIT      0.1065
53   H       -13.9945   13.1537   45.2859  H          1 SUBUNIT      0.1097
54   H       -17.3214    5.5454   49.8512  H          1 SUBUNIT      0.1095
55   H       -17.3067    7.6994   48.5896  H          1 SUBUNIT      0.3246
56   H       -17.5301    3.3595   50.9800  H          1 SUBUNIT      0.1088
57   H       -19.7048    2.1971   51.0381  H          1 SUBUNIT      0.1068
58   H       -14.3215    5.3145   43.3895  H          1 SUBUNIT      0.0503
59   H       -16.0645    5.6055   43.2778  H          1 SUBUNIT      0.0503
60   H       -15.4549    3.9597   43.5119  H          1 SUBUNIT      0.0503
61   H       -12.1466    9.0543   47.3260  H          1 SUBUNIT      0.1065
62   H       -11.1502    7.9701   42.7019  H          1 SUBUNIT      0.0224
63   H       -11.5951    5.7458   43.0733  H          1 SUBUNIT      0.3797
64   H       -13.3558    9.9004   41.6483  H          1 SUBUNIT      0.0207
65   H       -10.7424    9.6101   40.6335  H          1 SUBUNIT      0.3782
66   H       -12.2898    9.7660   38.7870  H          1 SUBUNIT      0.0374
67   H       -13.9512    9.2373   39.1855  H          1 SUBUNIT      0.0374
@<TRIPOS>BOND
     1    1    4 1
     2    1    6 1
     3    1   23 1
     4    2    4 2
     5    2   22 1
     6    3   18 1
     7    3   19 1
     8    4   25 1
     9    5    9 1
    10    5   23 1
    11    5   24 1
    12    6    7 1
    13    7   29 1
    14    8   29 1
    15    8   31 1
    16   10   26 2
    17   10   28 1
    18   11   12 2
    19   11   19 1
    20   12   21 1
    21   13   14 2
    22   13   25 1
    23   14   26 1
    24   15   19 2
    25   15   20 1
    26   16   17 2
    27   17   18 1
    28   17   22 1
    29   20   21 2
    30   22   23 2
    31   25   28 2
    32   26   27 1
    33   29   30 1
    34   31   32 1
    35   31   33 1
    36   33   34 1
    37   34   35 2
    38   34   36 1
    39    3   37 1
    40    3   38 1
    41    5   39 1
    42    6   40 1
    43    6   41 1
    44    7   42 1
    45    7   43 1
    46    8   44 1
    47    8   45 1
    48    9   46 1
    49    9   47 1
    50    9   48 1
    51   10   49 1
    52   11   50 1
    53   12   51 1
    54   13   52 1
    55   14   53 1
    56   15   54 1
    57   18   55 1
    58   20   56 1
    59   21   57 1
    60   24   58 1
    61   24   59 1
    62   24   60 1
    63   28   61 1
    64   29   62 1
    65   30   63 1
    66   31   64 1
    67   32   65 1
    68   33   66 1
    69   33   67 1
