@<TRIPOS>MOLECULE
2OI0-283
 36 37 0 0 0
SMALL
SF_CHARGES


@<TRIPOS>ATOM
1    C        46.0850   28.4790    2.5260  C.2        1 SUBUNIT     -0.1159
2    C        45.1140   28.8150    1.5370  C.2        1 SUBUNIT     -0.1082
3    C        43.3680   28.5170    3.1750  C.2        1 SUBUNIT     -0.1082
4    C        44.3110   28.1830    4.1440  C.2        1 SUBUNIT     -0.1159
5    C        45.6660   28.1620    3.8390  C.2        1 SUBUNIT      0.1486
6    O        46.4720   27.8170    4.9230  O.3        1 SUBUNIT     -0.4035
7    C        47.9140   27.7740    4.7600  C.3        1 SUBUNIT      0.3125
8    C        48.5850   23.9670    3.0390  C.3        1 SUBUNIT      0.0153
9    C        48.4120   25.3010    3.6900  C.1        1 SUBUNIT     -0.1274
10   C        48.2690   26.3640    4.1920  C.1        1 SUBUNIT     -0.1393
11   C        43.7530   28.8330    1.8840  C.2        1 SUBUNIT     -0.0797
12   O        42.9950   28.7670   -0.4940  O.2        1 SUBUNIT     -0.6319
13   O        41.1530   28.7870    1.1990  O.2        1 SUBUNIT     -0.6319
14   S        42.4650   29.2650    0.7610  S.o2       1 SUBUNIT      1.3073
15   C        40.8840   31.5860    0.4110  C.3        1 SUBUNIT      0.1500
16   N        42.2240   31.0160    0.7550  N.pl3      1 SUBUNIT     -0.5779
17   C        42.4910   31.6260    2.0950  C.3        1 SUBUNIT      0.1349
18   C        41.2000   31.4320    2.8880  C.3        1 SUBUNIT      0.1885
19   S        41.1580   31.9760    4.5860  S.3        1 SUBUNIT     -0.8947
20   C        40.2900   31.9010    1.7620  C.3        1 SUBUNIT     -0.0943
21   H        47.1321   28.4655    2.2787  H          1 SUBUNIT      0.1076
22   H        45.4135   29.0539    0.5315  H          1 SUBUNIT      0.1079
23   H        42.3230   28.5305    3.4309  H          1 SUBUNIT      0.1079
24   H        43.9876   27.9382    5.1406  H          1 SUBUNIT      0.1076
25   H        48.2221   28.5632    4.0663  H          1 SUBUNIT      0.0174
26   H        48.3916   27.9349    5.7321  H          1 SUBUNIT      0.0174
27   H        47.6259   23.5770    2.6825  H          1 SUBUNIT      0.0372
28   H        49.0042   23.2390    3.7414  H          1 SUBUNIT      0.0372
29   H        49.2611   24.0341    2.1803  H          1 SUBUNIT      0.0372
30   H        40.9878   32.4918   -0.1954  H          1 SUBUNIT      0.0265
31   H        40.2735   30.8536   -0.1275  H          1 SUBUNIT      0.0265
32   H        43.3272   31.1160    2.5845  H          1 SUBUNIT      0.0238
33   H        42.7242   32.6905    1.9880  H          1 SUBUNIT      0.0238
34   H        40.9058   30.4140    3.1640  H          1 SUBUNIT      0.0192
35   H        40.1476   32.9837    1.8433  H          1 SUBUNIT      0.0373
36   H        39.3217   31.3973    1.8500  H          1 SUBUNIT      0.0373
@<TRIPOS>BOND
     1    1    2 2
     2    1    5 1
     3    2   11 1
     4    3    4 1
     5    3   11 2
     6    4    5 2
     7    5    6 1
     8    6    7 1
     9    7   10 1
    10    8    9 1
    11    9   10 3
    12   11   14 1
    13   12   14 2
    14   13   14 2
    15   14   16 1
    16   15   16 1
    17   15   20 1
    18   16   17 1
    19   17   18 1
    20   18   19 1
    21   18   20 1
    22    1   21 1
    23    2   22 1
    24    3   23 1
    25    4   24 1
    26    7   25 1
    27    7   26 1
    28    8   27 1
    29    8   28 1
    30    8   29 1
    31   15   30 1
    32   15   31 1
    33   17   32 1
    34   17   33 1
    35   18   34 1
    36   20   35 1
    37   20   36 1
