@<TRIPOS>MOLECULE
CHEMBL138085
   29    30     0     0     0
SMALL
USER_CHARGES

@<TRIPOS>ATOM
      1 C1         -0.0166    1.3754    0.0096 C.ar      1 <0>        -0.0934
      2 C2          1.1701    2.0892    0.0021 C.ar      1 <0>        -0.0983
      3 C3          2.3799    1.4261   -0.0134 C.ar      1 <0>        -0.1156
      4 C4          2.4115    0.0358   -0.0216 C.ar      1 <0>         0.0988
      5 C5          1.2153   -0.6836   -0.0141 C.ar      1 <0>         0.1207
      6 C6          0.0021   -0.0041    0.0020 C.ar      1 <0>        -0.1180
      7 N1          1.2259   -2.0756   -0.0225 N.am      1 <0>        -0.6305
      8 H1          0.3892   -2.5663   -0.0175 H         1 <0>         0.4267
      9 C7          2.3977   -2.7427   -0.0382 C.2       1 <0>         0.5056
     10 O1          2.4121   -3.9572   -0.0464 O.2       1 <0>        -0.4591
     11 C8          3.6759   -1.9740   -0.0457 C.2       1 <0>         0.4901
     12 O2          4.7418   -2.5562   -0.0601 O.2       1 <0>        -0.4717
     13 N2          3.6359   -0.6261   -0.0377 N.am      1 <0>        -0.5339
     14 C9          4.8830    0.1426   -0.0460 C.3       1 <0>         0.0894
     15 C10         5.3317    0.4021    1.3936 C.3       1 <0>        -0.0634
     16 H2          4.6024    1.0408    1.8919 H         1 <0>         0.1399
     17 C11         6.6751    1.0848    1.3857 C.2       1 <0>         0.4929
     18 O3          6.7402    2.3021    1.3620 O.co2     1 <0>        -0.6277
     19 O4          7.6969    0.4199    1.4030 O.co2     1 <0>        -0.6538
     20 N3          5.4357   -0.8751    2.1118 N.4       1 <0>        -0.6123
     21 H3         -0.9602    1.9006    0.0259 H         1 <0>         0.1401
     22 H4          1.1486    3.1690    0.0081 H         1 <0>         0.1415
     23 H5          3.3028    1.9870   -0.0196 H         1 <0>         0.1469
     24 H6         -0.9259   -0.5565    0.0079 H         1 <0>         0.1422
     25 H7          5.6540   -0.4214   -0.5708 H         1 <0>         0.1254
     26 H8          4.7201    1.0938   -0.5528 H         1 <0>         0.1383
     27 H9          5.7316   -0.7040    3.0611 H         1 <0>         0.4338
     28 H10         4.5362   -1.3323    2.1171 H         1 <0>         0.4045
     29 H11         6.1107   -1.4664    1.6505 H         1 <0>         0.4409
@<TRIPOS>BOND
     1    1    6 ar
     2    1    2 ar
     3    1   21 1
     4    2    3 ar
     5    2   22 1
     6    3    4 ar
     7    3   23 1
     8    4   13 1
     9    4    5 ar
    10    5    6 ar
    11    5    7 1
    12    6   24 1
    13    7    8 1
    14    7    9 am
    15    9   10 2
    16    9   11 1
    17   11   12 2
    18   11   13 am
    19   13   14 1
    20   14   15 1
    21   14   25 1
    22   14   26 1
    23   15   16 1
    24   15   17 1
    25   15   20 1
    26   17   18 2
    27   17   19 1
    28   20   27 1
    29   20   28 1
    30   20   29 1
@<TRIPOS>MOLECULE
CHEMBL427186
   38    39     0     0     0
SMALL
USER_CHARGES

@<TRIPOS>ATOM
      1 C1          1.1975    1.8460    0.8859 C.ar      1 <0>        -0.1239
      2 C2          0.9860    2.3434   -0.3883 C.ar      1 <0>        -0.1388
      3 C3          0.8519    1.4804   -1.4555 C.ar      1 <0>        -0.0764
      4 C4          0.9304    0.1007   -1.2480 C.ar      1 <0>        -0.1241
      5 C5          1.1445   -0.3940    0.0408 C.ar      1 <0>        -0.0607
      6 C6          1.2763    0.4812    1.0988 C.ar      1 <0>        -0.1364
      7 C7          1.2303   -1.8803    0.2747 C.3       1 <0>         0.1690
      8 N1          1.3663   -2.1417    1.7098 N.am      1 <0>        -0.5421
      9 C8          2.5884   -2.1408    2.2795 C.2       1 <0>         0.5473
     10 O1          3.5799   -1.9238    1.6067 O.2       1 <0>        -0.4694
     11 C9          2.7081   -2.3943    3.6677 C.2       1 <0>        -0.2625
     12 C10         1.5925   -2.6316    4.3907 C.2       1 <0>         0.1654
     13 N2          0.3706   -2.6234    3.7738 N.am      1 <0>        -0.5491
     14 C11         0.2703   -2.3762    2.4551 C.2       1 <0>         0.6822
     15 O2         -0.8255   -2.3692    1.9283 O.2       1 <0>        -0.4969
     16 C12        -0.8399   -2.8808    4.5579 C.3       1 <0>         0.1050
     17 C13        -1.3875   -1.5588    5.0995 C.3       1 <0>        -0.0673
     18 H1         -1.7101   -0.9315    4.2685 H         1 <0>         0.1466
     19 C14        -2.5596   -1.8342    6.0057 C.2       1 <0>         0.4967
     20 O3         -2.3795   -2.0129    7.1982 O.co2     1 <0>        -0.6635
     21 O4         -3.6882   -1.8783    5.5463 O.co2     1 <0>        -0.6199
     22 N3         -0.3357   -0.8664    5.8560 N.4       1 <0>        -0.6167
     23 I1          4.5906   -2.4016    4.5870 I         1 <0>         0.0411
     24 C15         0.7875   -0.8290   -2.3846 C.2       1 <0>         0.5202
     25 O5          0.4868   -0.4015   -3.4902 O.co2     1 <0>        -0.6794
     26 O6          0.9696   -2.0272   -2.2211 O.co2     1 <0>        -0.6805
     27 H2          1.3059    2.5268    1.7173 H         1 <0>         0.1106
     28 H3          0.9255    3.4099   -0.5471 H         1 <0>         0.1164
     29 H4          0.6862    1.8698   -2.4491 H         1 <0>         0.1303
     30 H5          1.4415    0.1001    2.0958 H         1 <0>         0.0919
     31 H6          0.3249   -2.3595   -0.0977 H         1 <0>         0.1284
     32 H7          2.0965   -2.2816   -0.2514 H         1 <0>         0.1274
     33 H8          1.6640   -2.8272    5.4505 H         1 <0>         0.1811
     34 H9         -1.5904   -3.3523    3.9234 H         1 <0>         0.1474
     35 H10        -0.5999   -3.5428    5.3900 H         1 <0>         0.1231
     36 H11        -0.6968    0.0055    6.2132 H         1 <0>         0.4371
     37 H12        -0.0370   -1.4470    6.6253 H         1 <0>         0.4314
     38 H13         0.4491   -0.6820    5.2493 H         1 <0>         0.4092
@<TRIPOS>BOND
     1    1    6 ar
     2    1    2 ar
     3    1   27 1
     4    2    3 ar
     5    2   28 1
     6    3    4 ar
     7    3   29 1
     8    4    5 ar
     9    4   24 1
    10    5    6 ar
    11    5    7 1
    12    6   30 1
    13    7    8 1
    14    7   31 1
    15    7   32 1
    16    8   14 am
    17    8    9 am
    18    9   10 2
    19    9   11 1
    20   11   12 2
    21   11   23 1
    22   12   13 1
    23   12   33 1
    24   13   14 am
    25   13   16 1
    26   14   15 2
    27   16   17 1
    28   16   34 1
    29   16   35 1
    30   17   18 1
    31   17   19 1
    32   17   22 1
    33   19   20 2
    34   19   21 1
    35   22   36 1
    36   22   37 1
    37   22   38 1
    38   24   25 2
    39   24   26 1
@<TRIPOS>MOLECULE
CHEMBL277281
   28    31     0     0     0
SMALL
USER_CHARGES

@<TRIPOS>ATOM
      1 C1         -0.0167    1.3803    0.0096 C.ar      1 <0>        -0.1086
      2 C2          1.1704    2.0914    0.0021 C.ar      1 <0>        -0.1158
      3 C3          2.3796    1.4283   -0.0130 C.ar      1 <0>        -0.0927
      4 C4          2.4062    0.0311   -0.0208 C.ar      1 <0>        -0.0488
      5 C5          1.2045   -0.6745   -0.0131 C.ar      1 <0>        -0.0771
      6 C6          0.0021   -0.0041    0.0020 C.ar      1 <0>        -0.0921
      7 C7          1.5647   -2.1386   -0.0249 C.3       1 <0>        -0.0276
      8 C8          3.0769   -2.1869   -0.0399 C.2       1 <0>         0.0275
      9 C9          3.5375   -0.9266   -0.0372 C.2       1 <0>         0.1177
     10 N1          4.9096   -0.6707   -0.0487 N.am      1 <0>        -0.6326
     11 C10         5.7989   -1.6826   -0.0627 C.2       1 <0>         0.6061
     12 C11         5.2953   -3.0680   -0.0657 C.2       1 <0>         0.1021
     13 N2          3.9381   -3.2695   -0.0545 N.pl3     1 <0>        -0.3625
     14 C12         3.7255   -4.5999   -0.0600 C.2       1 <0>         0.0021
     15 C13         4.9696   -5.2051   -0.0755 C.2       1 <0>        -0.0143
     16 N3          5.8978   -4.2335   -0.0775 N.2       1 <0>        -0.3657
     17 C14         5.2297   -6.6539   -0.0855 C.2       1 <0>         0.5604
     18 O1          4.2951   -7.4433   -0.0802 O.co2     1 <0>        -0.6830
     19 O2          6.3807   -7.0687   -0.0991 O.co2     1 <0>        -0.6619
     20 O3          6.9949   -1.4573   -0.0731 O.2       1 <0>        -0.4944
     21 H1         -0.9598    1.9063    0.0260 H         1 <0>         0.1303
     22 H2          1.1499    3.1712    0.0078 H         1 <0>         0.1293
     23 H3          3.3036    1.9874   -0.0192 H         1 <0>         0.1253
     24 H4         -0.9254   -0.5574    0.0083 H         1 <0>         0.1318
     25 H5          1.1812   -2.6280    0.8703 H         1 <0>         0.1159
     26 H6          1.1637   -2.6179   -0.9180 H         1 <0>         0.1159
     27 H7          2.7675   -5.0984   -0.0529 H         1 <0>         0.1947
     28 H8          5.2265    0.2461   -0.0469 H         1 <0>         0.4179
@<TRIPOS>BOND
     1    1    6 ar
     2    1    2 ar
     3    1   21 1
     4    2    3 ar
     5    2   22 1
     6    3    4 ar
     7    3   23 1
     8    4    9 1
     9    4    5 ar
    10    5    6 ar
    11    5    7 1
    12    6   24 1
    13    7    8 1
    14    7   25 1
    15    7   26 1
    16    8   13 1
    17    8    9 2
    18    9   10 1
    19   10   11 am
    20   10   28 1
    21   11   12 1
    22   11   20 2
    23   12   16 2
    24   12   13 1
    25   13   14 1
    26   14   15 2
    27   14   27 1
    28   15   16 1
    29   15   17 1
    30   17   18 2
    31   17   19 1
@<TRIPOS>MOLECULE
CHEMBL277281__1
   27    30     0     0     0
SMALL
USER_CHARGES

@<TRIPOS>ATOM
      1 C1         -0.0167    1.3798    0.0096 C.ar      1 <0>        -0.1308
      2 C2          1.1706    2.0901    0.0021 C.ar      1 <0>        -0.1296
      3 C3          2.3793    1.4254   -0.0134 C.ar      1 <0>        -0.0867
      4 C4          2.4051    0.0297   -0.0211 C.ar      1 <0>        -0.0131
      5 C5          1.2051   -0.6754   -0.0130 C.ar      1 <0>        -0.0891
      6 C6          0.0021   -0.0041    0.0020 C.ar      1 <0>        -0.1045
      7 C7          1.5584   -2.1415   -0.0243 C.3       1 <0>        -0.0047
      8 C8          3.0685   -2.2009   -0.0396 C.2       1 <0>        -0.1353
      9 C9          3.5410   -0.9293   -0.0375 C.2       1 <0>         0.1727
     10 N1          4.8705   -0.6848   -0.0498 N.2       1 <0>        -0.6205
     11 C10         5.7502   -1.6576   -0.0641 C.2       1 <0>         0.5076
     12 C11         5.2811   -3.0443   -0.0669 C.2       1 <0>         0.1147
     13 N2          3.9254   -3.2698   -0.0538 N.pl3     1 <0>        -0.3207
     14 C12         3.7351   -4.6058   -0.0595 C.2       1 <0>        -0.0666
     15 C13         4.9861   -5.1904   -0.0753 C.2       1 <0>        -0.0300
     16 N3          5.9022   -4.2045   -0.0796 N.2       1 <0>        -0.4170
     17 C14         5.2676   -6.6357   -0.0855 C.2       1 <0>         0.5666
     18 O1          4.3447   -7.4387   -0.0801 O.co2     1 <0>        -0.7027
     19 O2          6.4245   -7.0334   -0.0994 O.co2     1 <0>        -0.6788
     20 O3          7.0771   -1.3824   -0.0766 O.3       1 <0>        -0.6562
     21 H1         -0.9597    1.9061    0.0260 H         1 <0>         0.1178
     22 H2          1.1510    3.1699    0.0081 H         1 <0>         0.1183
     23 H3          3.3038    1.9837   -0.0200 H         1 <0>         0.1272
     24 H4         -0.9255   -0.5572    0.0082 H         1 <0>         0.1189
     25 H5          1.1719   -2.6284    0.8711 H         1 <0>         0.0857
     26 H6          1.1542   -2.6189   -0.9169 H         1 <0>         0.0857
     27 H7          2.7854   -5.1199   -0.0526 H         1 <0>         0.1710
@<TRIPOS>BOND
     1    1    6 ar
     2    1    2 ar
     3    1   21 1
     4    2    3 ar
     5    2   22 1
     6    3    4 ar
     7    3   23 1
     8    4    9 1
     9    4    5 ar
    10    5    6 ar
    11    5    7 1
    12    6   24 1
    13    7    8 1
    14    7   25 1
    15    7   26 1
    16    8   13 1
    17    8    9 2
    18    9   10 1
    19   10   11 2
    20   11   12 1
    21   11   20 1
    22   12   16 2
    23   12   13 1
    24   13   14 1
    25   14   15 2
    26   14   27 1
    27   15   16 1
    28   15   17 1
    29   17   18 2
    30   17   19 1
@<TRIPOS>MOLECULE
CHEMBL337577
   30    31     0     0     0
SMALL
USER_CHARGES

@<TRIPOS>ATOM
      1 C1         -0.0189    1.5401    0.0105 C.3       1 <0>        -0.1133
      2 C2          1.4878    1.8792   -0.0021 C.3       1 <0>        -0.0554
      3 C3          2.1649    0.6773    0.6185 C.2       1 <0>        -0.2360
      4 C4          1.3303   -0.3821    0.6214 C.2       1 <0>         0.1259
      5 N1          1.7575   -1.5758    1.1444 N.am      1 <0>        -0.5370
      6 C5          2.9954   -1.7011    1.6530 C.2       1 <0>         0.6956
      7 O1          3.3501   -2.7702    2.1109 O.2       1 <0>        -0.5145
      8 N2          3.8478   -0.6595    1.6621 N.am      1 <0>        -0.6548
      9 H1          4.7379   -0.7660    2.0327 H         1 <0>         0.4383
     10 C6          3.4674    0.5311    1.1585 C.2       1 <0>         0.5583
     11 O2          4.2377    1.4743    1.1657 O.2       1 <0>        -0.4963
     12 C7          0.8533   -2.7285    1.1491 C.3       1 <0>         0.1032
     13 C8          1.0316   -3.5219   -0.1470 C.3       1 <0>        -0.0656
     14 H2          2.0362   -3.9435   -0.1796 H         1 <0>         0.1438
     15 C9          0.0175   -4.6355   -0.1978 C.2       1 <0>         0.4939
     16 O3         -1.0741   -4.4431   -0.7056 O.co2     1 <0>        -0.6590
     17 O4          0.2887   -5.7287    0.2688 O.co2     1 <0>        -0.6196
     18 N3          0.8374   -2.6298   -1.2978 N.4       1 <0>        -0.6177
     19 C10         0.0021   -0.0041    0.0020 C.3       1 <0>        -0.0918
     20 H3         -0.4958    1.9183    0.9147 H         1 <0>         0.0891
     21 H4         -0.5130    1.9279   -0.8803 H         1 <0>         0.0974
     22 H5          1.8351    2.0233   -1.0251 H         1 <0>         0.0891
     23 H6          1.6801    2.7717    0.5934 H         1 <0>         0.0906
     24 H7          1.0842   -3.3679    2.0011 H         1 <0>         0.1445
     25 H8         -0.1773   -2.3816    1.2239 H         1 <0>         0.1217
     26 H9         -0.0926   -2.2394   -1.2676 H         1 <0>         0.4306
     27 H10         1.5163   -1.8842   -1.2637 H         1 <0>         0.4087
     28 H11        -0.8202   -0.3972    0.5999 H         1 <0>         0.1073
     29 H12        -0.0592   -0.3780   -1.0200 H         1 <0>         0.0864
     30 H13         0.9549   -3.1529   -2.1525 H         1 <0>         0.4368
@<TRIPOS>BOND
     1    1   19 1
     2    1    2 1
     3    1   20 1
     4    1   21 1
     5    2    3 1
     6    2   22 1
     7    2   23 1
     8    3   10 1
     9    3    4 2
    10    4    5 1
    11    4   19 1
    12    5    6 am
    13    5   12 1
    14    6    7 2
    15    6    8 am
    16    8    9 1
    17    8   10 am
    18   10   11 2
    19   12   13 1
    20   12   24 1
    21   12   25 1
    22   13   14 1
    23   13   15 1
    24   13   18 1
    25   15   16 2
    26   15   17 1
    27   18   26 1
    28   18   27 1
    29   18   30 1
    30   19   28 1
    31   19   29 1
@<TRIPOS>MOLECULE
CHEMBL12696
   53    56     0     0     0
SMALL
USER_CHARGES

@<TRIPOS>ATOM
      1 C1          1.1830   -0.7050   -0.5965 C.ar      1 <0>        -0.1165
      2 C2          2.3881   -0.0304   -0.5857 C.ar      1 <0>        -0.0691
      3 C3          2.5259    1.1306    0.1542 C.ar      1 <0>        -0.1127
      4 C4          1.4576    1.6187    0.8855 C.ar      1 <0>        -0.0688
      5 C5          0.2504    0.9479    0.8786 C.ar      1 <0>        -0.1458
      6 C6          0.1091   -0.2170    0.1362 C.ar      1 <0>         0.1909
      7 N1         -1.1135   -0.8987    0.1270 N.am      1 <0>        -0.6886
      8 C7         -1.1350   -2.2426    0.0270 C.2       1 <0>         0.7033
      9 O1         -0.0936   -2.8701    0.0420 O.2       1 <0>        -0.5746
     10 N2         -2.3108   -2.8909   -0.0898 N.am      1 <0>        -0.7317
     11 C8         -2.3342   -4.3517   -0.1985 C.3       1 <0>         0.2164
     12 C9         -3.7604   -4.8239   -0.3170 C.2       1 <0>        -0.1874
     13 C10        -4.6178   -5.1624    0.7490 C.2       1 <0>        -0.1710
     14 C11        -5.7998   -5.5328    0.2158 C.2       1 <0>         0.0012
     15 N3         -5.7040   -5.4354   -1.1429 N.pl3     1 <0>        -0.4073
     16 C12        -4.4518   -4.9942   -1.4623 C.2       1 <0>         0.0184
     17 C13        -6.7240   -5.7339   -2.0581 C.ar      1 <0>         0.1835
     18 C14        -7.9416   -5.0776   -1.9752 C.ar      1 <0>        -0.1152
     19 C15        -8.9525   -5.3724   -2.8817 C.ar      1 <0>         0.2046
     20 C16        -8.7366   -6.3312   -3.8741 C.ar      1 <0>         0.1116
     21 C17        -7.5115   -6.9851   -3.9493 C.ar      1 <0>        -0.0569
     22 C18        -6.5099   -6.6837   -3.0506 C.ar      1 <0>        -0.1918
     23 C19        -5.1819   -7.3903   -3.1405 C.3       1 <0>         0.5180
     24 F1         -5.2541   -8.3973   -4.1089 F         1 <0>        -0.1755
     25 F2         -4.1881   -6.4720   -3.4958 F         1 <0>        -0.1715
     26 F3         -4.8706   -7.9577   -1.9001 F         1 <0>        -0.1670
     27 N4         -9.7389   -6.6394   -4.7906 N.am      1 <0>        -0.6313
     28 H1         -9.5799   -7.3071   -5.4760 H         1 <0>         0.4219
     29 C20       -10.9303   -6.0111   -4.7264 C.2       1 <0>         0.5167
     30 O2        -11.8077   -6.2769   -5.5234 O.2       1 <0>        -0.4703
     31 C21       -11.1602   -4.9872   -3.6670 C.2       1 <0>         0.5080
     32 O3        -12.2265   -4.4103   -3.5926 O.2       1 <0>        -0.4544
     33 N5        -10.1729   -4.7088   -2.7919 N.am      1 <0>        -0.4916
     34 C22       -10.3847   -3.7059   -1.7452 C.3       1 <0>         0.0196
     35 C23        -9.9712   -2.3502   -2.2574 C.2       1 <0>         0.4875
     36 O4         -9.5397   -2.2327   -3.3916 O.co2     1 <0>        -0.6765
     37 O5        -10.0683   -1.3710   -1.5376 O.co2     1 <0>        -0.6814
     38 Br1         4.1775    2.0515    0.1665 Br        1 <0>        -0.0575
     39 H2          1.0747   -1.6087   -1.1778 H         1 <0>         0.1460
     40 H3          3.2238   -0.4096   -1.1551 H         1 <0>         0.1346
     41 H4          1.5680    2.5250    1.4625 H         1 <0>         0.1354
     42 H5         -0.5830    1.3289    1.4502 H         1 <0>         0.1352
     43 H6         -1.9452   -0.4039    0.1927 H         1 <0>         0.4110
     44 H7         -3.1416   -2.3904   -0.1018 H         1 <0>         0.4023
     45 H8         -1.7750   -4.6593   -1.0822 H         1 <0>         0.0723
     46 H9         -1.8791   -4.7895    0.6900 H         1 <0>         0.0754
     47 H10        -4.3730   -5.1313    1.8005 H         1 <0>         0.1424
     48 H11        -6.6715   -5.8518    0.7679 H         1 <0>         0.1674
     49 H12        -4.0787   -4.8153   -2.4599 H         1 <0>         0.1759
     50 H13        -8.1049   -4.3374   -1.2060 H         1 <0>         0.1600
     51 H14        -7.3428   -7.7273   -4.7155 H         1 <0>         0.1593
     52 H15       -11.4393   -3.6844   -1.4707 H         1 <0>         0.1029
     53 H16        -9.7867   -3.9617   -0.8705 H         1 <0>         0.0930
@<TRIPOS>BOND
     1    1    6 ar
     2    1    2 ar
     3    1   39 1
     4    2    3 ar
     5    2   40 1
     6    3    4 ar
     7    3   38 1
     8    4    5 ar
     9    4   41 1
    10    5    6 ar
    11    5   42 1
    12    6    7 1
    13    7    8 am
    14    7   43 1
    15    8    9 2
    16    8   10 am
    17   10   11 1
    18   10   44 1
    19   11   12 1
    20   11   45 1
    21   11   46 1
    22   12   16 2
    23   12   13 1
    24   13   14 2
    25   13   47 1
    26   14   15 1
    27   14   48 1
    28   15   16 1
    29   15   17 1
    30   16   49 1
    31   17   22 ar
    32   17   18 ar
    33   18   19 ar
    34   18   50 1
    35   19   33 1
    36   19   20 ar
    37   20   21 ar
    38   20   27 1
    39   21   22 ar
    40   21   51 1
    41   22   23 1
    42   23   24 1
    43   23   25 1
    44   23   26 1
    45   27   28 1
    46   27   29 am
    47   29   30 2
    48   29   31 1
    49   31   32 2
    50   31   33 am
    51   33   34 1
    52   34   35 1
    53   34   52 1
    54   34   53 1
    55   35   36 2
    56   35   37 1
@<TRIPOS>MOLECULE
CHEMBL429540
   58    61     0     0     0
SMALL
USER_CHARGES

@<TRIPOS>ATOM
      1 C1         -0.2053    2.0061    0.7924 C.ar      1 <0>        -0.1151
      2 C2          1.0287    2.6152    0.6618 C.ar      1 <0>        -0.1165
      3 C3          2.1692    1.8451    0.5308 C.ar      1 <0>        -0.1155
      4 C4          2.0756    0.4659    0.5308 C.ar      1 <0>        -0.0987
      5 C5          0.8417   -0.1431    0.6623 C.ar      1 <0>        -0.1151
      6 C6         -0.2989    0.6270    0.7919 C.ar      1 <0>        -0.1159
      7 C7          3.3188   -0.3736    0.3869 C.3       1 <0>        -0.0724
      8 C8          3.8982   -0.6685    1.7719 C.3       1 <0>        -0.1469
      9 C9          5.1604   -1.5208    1.6258 C.3       1 <0>        -0.0090
     10 N1          5.7166   -1.8039    2.9556 N.4       1 <0>        -0.5116
     11 C10         6.9285   -2.6223    2.8154 C.3       1 <0>         0.0869
     12 C11         7.4992   -2.9128    4.1796 C.2       1 <0>        -0.2468
     13 C12         8.4402   -2.1266    4.8743 C.2       1 <0>        -0.1677
     14 C13         8.6841   -2.7346    6.0531 C.2       1 <0>         0.0147
     15 N2          7.9269   -3.8695    6.1124 N.pl3     1 <0>        -0.3946
     16 C14         7.1984   -3.9695    4.9617 C.2       1 <0>         0.0920
     17 C15         7.8984   -4.7787    7.1799 C.ar      1 <0>         0.1825
     18 C16         7.5507   -4.3447    8.4490 C.ar      1 <0>        -0.1146
     19 C17         7.5217   -5.2447    9.5071 C.ar      1 <0>         0.2287
     20 C18         7.8444   -6.5857    9.2863 C.ar      1 <0>         0.1250
     21 C19         8.1926   -7.0121    8.0092 C.ar      1 <0>        -0.0409
     22 C20         8.2135   -6.1151    6.9619 C.ar      1 <0>        -0.0605
     23 N3          8.5785   -6.5753    5.6031 N.pl3     1 <0>         0.0425
     24 O1          8.7361   -7.7542    5.3861 O.2       1 <0>        -0.1520
     25 O2          8.7189   -5.7723    4.7103 O.3       1 <0>        -0.1552
     26 N4          7.8210   -7.5013   10.3354 N.am      1 <0>        -0.6321
     27 H1          8.0469   -8.4305   10.1724 H         1 <0>         0.4273
     28 C21         7.4852   -7.0981   11.5775 C.2       1 <0>         0.5175
     29 O3          7.4641   -7.8930   12.4958 O.2       1 <0>        -0.4513
     30 C22         7.1403   -5.6665   11.8127 C.2       1 <0>         0.5087
     31 O4          6.8355   -5.2837   12.9244 O.2       1 <0>        -0.4335
     32 N5          7.1714   -4.8011   10.7792 N.am      1 <0>        -0.4906
     33 C23         6.8359   -3.3915   10.9954 C.3       1 <0>         0.0153
     34 C24         5.3563   -3.1903   10.7921 C.2       1 <0>         0.4868
     35 O5          4.6477   -4.1367   10.4943 O.co2     1 <0>        -0.6766
     36 O6          4.8678   -2.0812   10.9256 O.co2     1 <0>        -0.6753
     37 H2         -1.0959    2.6078    0.8993 H         1 <0>         0.1250
     38 H3          1.1018    3.6927    0.6618 H         1 <0>         0.1249
     39 H4          3.1332    2.3210    0.4280 H         1 <0>         0.1216
     40 H5          0.7686   -1.2207    0.6619 H         1 <0>         0.1219
     41 H6         -1.2630    0.1511    0.8943 H         1 <0>         0.1252
     42 H7          3.0686   -1.3112   -0.1095 H         1 <0>         0.0822
     43 H8          4.0555    0.1669   -0.2075 H         1 <0>         0.0821
     44 H9          4.1484    0.2692    2.2682 H         1 <0>         0.0887
     45 H10         3.1616   -1.2090    2.3663 H         1 <0>         0.0888
     46 H11         4.9102   -2.4584    1.1295 H         1 <0>         0.1303
     47 H12         5.8970   -0.9803    1.0314 H         1 <0>         0.1307
     48 H13         5.9482   -0.9360    3.4151 H         1 <0>         0.4278
     49 H14         6.6783   -3.5599    2.3190 H         1 <0>         0.1313
     50 H15         7.6651   -2.0818    2.2210 H         1 <0>         0.1347
     51 H16         8.8850   -1.2061    4.5262 H         1 <0>         0.1504
     52 H17         9.3612   -2.3845    6.8181 H         1 <0>         0.1740
     53 H18         6.5034   -4.7597    4.7188 H         1 <0>         0.1639
     54 H19         7.3025   -3.3069    8.6158 H         1 <0>         0.1710
     55 H20         8.4428   -8.0484    7.8365 H         1 <0>         0.1760
     56 H21         7.1051   -3.1057   12.0122 H         1 <0>         0.1090
     57 H22         7.3873   -2.7739   10.2864 H         1 <0>         0.0941
     58 H23         5.0348   -2.3043    3.5059 H         1 <0>         0.4265
@<TRIPOS>BOND
     1    1    6 ar
     2    1    2 ar
     3    1   37 1
     4    2    3 ar
     5    2   38 1
     6    3    4 ar
     7    3   39 1
     8    4    5 ar
     9    4    7 1
    10    5    6 ar
    11    5   40 1
    12    6   41 1
    13    7    8 1
    14    7   42 1
    15    7   43 1
    16    8    9 1
    17    8   44 1
    18    8   45 1
    19    9   10 1
    20    9   46 1
    21    9   47 1
    22   10   11 1
    23   10   48 1
    24   10   58 1
    25   11   12 1
    26   11   49 1
    27   11   50 1
    28   12   16 2
    29   12   13 1
    30   13   14 2
    31   13   51 1
    32   14   15 1
    33   14   52 1
    34   15   16 1
    35   15   17 1
    36   16   53 1
    37   17   22 ar
    38   17   18 ar
    39   18   19 ar
    40   18   54 1
    41   19   32 1
    42   19   20 ar
    43   20   21 ar
    44   20   26 1
    45   21   22 ar
    46   21   55 1
    47   22   23 1
    48   23   24 2
    49   23   25 1
    50   26   27 1
    51   26   28 am
    52   28   29 2
    53   28   30 1
    54   30   31 2
    55   30   32 am
    56   32   33 1
    57   33   34 1
    58   33   56 1
    59   33   57 1
    60   34   35 2
    61   34   36 1
@<TRIPOS>MOLECULE
CHEMBL429540__1
   57    60     0     0     0
SMALL
USER_CHARGES

@<TRIPOS>ATOM
      1 C1          0.3171    2.3565    0.6164 C.ar      1 <0>        -0.1173
      2 C2          1.5738    2.9273    0.5385 C.ar      1 <0>        -0.1172
      3 C3          2.6933    2.1226    0.4376 C.ar      1 <0>        -0.1154
      4 C4          2.5562    0.7473    0.4150 C.ar      1 <0>        -0.0954
      5 C5          1.2996    0.1765    0.4938 C.ar      1 <0>        -0.1151
      6 C6          0.1800    0.9812    0.5933 C.ar      1 <0>        -0.1166
      7 C7          3.7766   -0.1299    0.3040 C.3       1 <0>        -0.0739
      8 C8          4.2958   -0.4609    1.7046 C.3       1 <0>        -0.1455
      9 C9          5.5348   -1.3515    1.5919 C.3       1 <0>        -0.0096
     10 N1          6.0333   -1.6694    2.9366 N.4       1 <0>        -0.5095
     11 C10         7.2229   -2.5244    2.8284 C.3       1 <0>         0.0901
     12 C11         7.7344   -2.8505    4.2080 C.2       1 <0>        -0.2580
     13 C12         8.6743   -2.1038    4.9468 C.2       1 <0>        -0.1904
     14 C13         8.8561   -2.7340    6.1249 C.2       1 <0>         0.0612
     15 N2          8.0616   -3.8450    6.1415 N.pl3     1 <0>        -0.3628
     16 C14         7.3722   -3.9068    4.9638 C.2       1 <0>         0.0487
     17 C15         7.9656   -4.7644    7.1928 C.ar      1 <0>         0.0855
     18 C16         8.2535   -6.1002    6.9683 C.ar      1 <0>        -0.1042
     19 C17         8.1581   -7.0122    8.0120 C.ar      1 <0>         0.1392
     20 C18         7.7693   -6.5714    9.2907 C.ar      1 <0>         0.1878
     21 C19         7.4823   -5.2133    9.4952 C.ar      1 <0>        -0.0610
     22 C20         7.5861   -4.3297    8.4620 C.ar      1 <0>        -0.0420
     23 N3          7.2878   -2.8976    8.6884 N.pl3     1 <0>         0.0496
     24 O1          7.0769   -2.4938    9.8083 O.2       1 <0>        -0.1728
     25 O2          7.2550   -2.1319    7.7534 O.3       1 <0>        -0.1819
     26 N4          7.6716   -7.4416   10.3160 N.2       1 <0>        -0.6060
     27 C21         7.9337   -8.7110   10.1499 C.2       1 <0>         0.4333
     28 O3          7.8278   -9.5660   11.1962 O.3       1 <0>        -0.6072
     29 C22         8.3434   -9.2143    8.8283 C.2       1 <0>         0.4783
     30 O4          8.5889  -10.3958    8.6674 O.2       1 <0>        -0.4976
     31 N5          8.4442   -8.3478    7.7968 N.am      1 <0>        -0.4871
     32 C23         8.8493   -8.8166    6.4693 C.3       1 <0>         0.0243
     33 C24        10.3492   -8.7391    6.3453 C.2       1 <0>         0.4870
     34 O5         11.0178   -8.3303    7.2792 O.co2     1 <0>        -0.6723
     35 O6         10.8940   -9.0854    5.3110 O.co2     1 <0>        -0.6966
     36 H1         -0.5572    2.9851    0.6998 H         1 <0>         0.1237
     37 H2          1.6809    4.0018    0.5562 H         1 <0>         0.1241
     38 H3          3.6750    2.5685    0.3761 H         1 <0>         0.1221
     39 H4          1.1925   -0.8980    0.4758 H         1 <0>         0.1224
     40 H5         -0.8017    0.5353    0.6544 H         1 <0>         0.1243
     41 H6          3.5149   -1.0525   -0.2140 H         1 <0>         0.0823
     42 H7          4.5510    0.3942   -0.2561 H         1 <0>         0.0821
     43 H8          4.5574    0.4617    2.2226 H         1 <0>         0.0880
     44 H9          3.5214   -0.9850    2.2647 H         1 <0>         0.0878
     45 H10         5.2732   -2.2742    1.0739 H         1 <0>         0.1287
     46 H11         6.3092   -0.8274    1.0318 H         1 <0>         0.1288
     47 H12         6.2755   -0.8153    3.4162 H         1 <0>         0.4274
     48 H13         6.9613   -3.4471    2.3104 H         1 <0>         0.1268
     49 H14         7.9973   -2.0003    2.2683 H         1 <0>         0.1299
     50 H15         9.1602   -1.1936    4.6276 H         1 <0>         0.1416
     51 H16         9.5162   -2.4156    6.9182 H         1 <0>         0.1586
     52 H17         6.6618   -4.6710    4.6852 H         1 <0>         0.1654
     53 H18         8.5510   -6.4322    5.9846 H         1 <0>         0.1453
     54 H19         7.1832   -4.8666   10.4733 H         1 <0>         0.1618
     55 H20         8.5264   -9.8488    6.3343 H         1 <0>         0.0947
     56 H21         8.3888   -8.1891    5.7062 H         1 <0>         0.0789
     57 H22         5.3165   -2.1545    3.4551 H         1 <0>         0.4256
@<TRIPOS>BOND
     1    1    6 ar
     2    1    2 ar
     3    1   36 1
     4    2    3 ar
     5    2   37 1
     6    3    4 ar
     7    3   38 1
     8    4    5 ar
     9    4    7 1
    10    5    6 ar
    11    5   39 1
    12    6   40 1
    13    7    8 1
    14    7   41 1
    15    7   42 1
    16    8    9 1
    17    8   43 1
    18    8   44 1
    19    9   10 1
    20    9   45 1
    21    9   46 1
    22   10   11 1
    23   10   47 1
    24   10   57 1
    25   11   12 1
    26   11   48 1
    27   11   49 1
    28   12   16 2
    29   12   13 1
    30   13   14 2
    31   13   50 1
    32   14   15 1
    33   14   51 1
    34   15   16 1
    35   15   17 1
    36   16   52 1
    37   17   22 ar
    38   17   18 ar
    39   18   19 ar
    40   18   53 1
    41   19   31 1
    42   19   20 ar
    43   20   21 ar
    44   20   26 1
    45   21   22 ar
    46   21   54 1
    47   22   23 1
    48   23   24 2
    49   23   25 1
    50   26   27 2
    51   27   28 1
    52   27   29 1
    53   29   30 2
    54   29   31 am
    55   31   32 1
    56   32   33 1
    57   32   55 1
    58   32   56 1
    59   33   34 2
    60   33   35 1
@<TRIPOS>MOLECULE
CHEMBL61751
   41    42     0     0     0
SMALL
USER_CHARGES

@<TRIPOS>ATOM
      1 C1          5.0428    0.8733    8.7727 C.ar      1 <0>        -0.1194
      2 C2          5.0212    1.5387    7.5489 C.ar      1 <0>        -0.1259
      3 C3          5.4653    0.9309    6.4134 C.ar      1 <0>        -0.0995
      4 C4          5.9515   -0.3824    6.4737 C.ar      1 <0>        -0.0470
      5 C5          5.9744   -1.0605    7.7166 C.ar      1 <0>        -0.0486
      6 C6          5.5081   -0.4023    8.8681 C.ar      1 <0>        -0.1099
      7 C7          6.4616   -2.3774    7.7785 C.ar      1 <0>        -0.1239
      8 C8          6.9083   -2.9947    6.6489 C.ar      1 <0>        -0.1015
      9 C9          6.8940   -2.3450    5.4207 C.ar      1 <0>        -0.1222
     10 C10         6.4220   -1.0461    5.3136 C.ar      1 <0>        -0.0227
     11 C11         6.4088   -0.3628    4.0065 C.2       1 <0>        -0.1630
     12 C12         6.8514   -0.9918    2.9241 C.2       1 <0>        -0.0900
     13 C13         6.8380   -0.2937    1.5886 C.3       1 <0>        -0.0747
     14 C14         8.2441   -0.3182    0.9861 C.3       1 <0>        -0.1646
     15 H1          8.9508    0.1133    1.6950 H         1 <0>         0.0510
     16 C15         8.2585    0.4969   -0.3086 C.3       1 <0>        -0.1011
     17 C16         9.6920    0.5934   -0.8346 C.3       1 <0>        -0.0447
     18 H2         10.1093   -0.4083   -0.9379 H         1 <0>         0.1366
     19 C17         9.6894    1.2774   -2.1774 C.2       1 <0>         0.4955
     20 O1         10.1525    2.3995   -2.2908 O.co2     1 <0>        -0.6897
     21 O2          9.2241    0.7087   -3.1504 O.co2     1 <0>        -0.6369
     22 N1         10.5085    1.3691    0.1085 N.4       1 <0>        -0.6096
     23 C18         8.6380   -1.7419    0.6878 C.2       1 <0>         0.4958
     24 O3          9.6356   -2.2189    1.2016 O.co2     1 <0>        -0.7027
     25 O4          7.9592   -2.4168   -0.0673 O.co2     1 <0>        -0.6756
     26 H3          4.6893    1.3785    9.6594 H         1 <0>         0.1196
     27 H4          4.6467    2.5505    7.4996 H         1 <0>         0.1204
     28 H5          5.4425    1.4584    5.4713 H         1 <0>         0.1274
     29 H6          5.5188   -0.9063    9.8232 H         1 <0>         0.1240
     30 H7          6.4824   -2.9007    8.7230 H         1 <0>         0.1233
     31 H8          7.2804   -4.0067    6.7093 H         1 <0>         0.1236
     32 H9          7.2545   -2.8571    4.5408 H         1 <0>         0.1307
     33 H10         6.0391    0.6490    3.9299 H         1 <0>         0.1170
     34 H11         7.2211   -2.0036    3.0008 H         1 <0>         0.1185
     35 H12         6.1466   -0.8046    0.9185 H         1 <0>         0.0890
     36 H13         6.5179    0.7397    1.7220 H         1 <0>         0.0588
     37 H14         7.6305    0.0075   -1.0530 H         1 <0>         0.1113
     38 H15         7.8756    1.4982   -0.1118 H         1 <0>         0.0651
     39 H16        10.5103    0.9111    1.0076 H         1 <0>         0.4179
     40 H17        11.4539    1.4327   -0.2384 H         1 <0>         0.4250
     41 H18        10.1222    2.2963    0.2042 H         1 <0>         0.4227
@<TRIPOS>BOND
     1    1    6 ar
     2    1    2 ar
     3    1   26 1
     4    2    3 ar
     5    2   27 1
     6    3    4 ar
     7    3   28 1
     8    4   10 ar
     9    4    5 ar
    10    5    6 ar
    11    5    7 ar
    12    6   29 1
    13    7    8 ar
    14    7   30 1
    15    8    9 ar
    16    8   31 1
    17    9   10 ar
    18    9   32 1
    19   10   11 1
    20   11   12 2
    21   11   33 1
    22   12   13 1
    23   12   34 1
    24   13   14 1
    25   13   35 1
    26   13   36 1
    27   14   15 1
    28   14   16 1
    29   14   23 1
    30   16   17 1
    31   16   37 1
    32   16   38 1
    33   17   18 1
    34   17   19 1
    35   17   22 1
    36   19   20 2
    37   19   21 1
    38   22   39 1
    39   22   40 1
    40   22   41 1
    41   23   24 2
    42   23   25 1
@<TRIPOS>MOLECULE
CHEMBL28472
   30    31     0     0     0
SMALL
USER_CHARGES

@<TRIPOS>ATOM
      1 C1         -0.0187    1.5280    0.0104 C.3       1 <0>        -0.1053
      2 C2          1.4204    2.0579   -0.0005 C.3       1 <0>        -0.0925
      3 C3          2.3366    1.3683   -0.9672 C.2       1 <0>        -0.1485
      4 C4          2.8718    0.1998   -0.6147 C.2       1 <0>        -0.0185
      5 C5          2.3973   -0.4229    0.6388 C.2       1 <0>        -0.2344
      6 C6          1.0746   -0.5071    0.9303 C.2       1 <0>         0.0873
      7 O1          0.9351   -1.0940    2.1174 O.3       1 <0>        -0.0534
      8 N1          2.2131   -1.4320    2.6301 N.am      1 <0>        -0.5833
      9 C7          3.1421   -1.0238    1.7316 C.2       1 <0>         0.5388
     10 O2          4.3531   -1.1374    1.8220 O.2       1 <0>        -0.4783
     11 C8          0.0021   -0.0041    0.0020 C.3       1 <0>        -0.0439
     12 C9          3.9240   -0.4639   -1.4652 C.3       1 <0>        -0.0500
     13 C10         5.3125   -0.0933   -0.9403 C.3       1 <0>         0.0197
     14 H1          5.3820   -0.3507    0.1166 H         1 <0>         0.0954
     15 C11         6.3606   -0.8527   -1.7122 C.2       1 <0>         0.4648
     16 O3          6.8393   -0.3721   -2.7253 O.co2     1 <0>        -0.7058
     17 O4          6.7299   -1.9478   -1.3236 O.co2     1 <0>        -0.6987
     18 N2          5.5304    1.3497   -1.1082 N.3       1 <0>        -0.8253
     19 H2         -0.5287    1.8796    0.9073 H         1 <0>         0.0698
     20 H3         -0.5457    1.8892   -0.8727 H         1 <0>         0.0807
     21 H4          1.3948    3.1193   -0.2473 H         1 <0>         0.0668
     22 H5          1.8343    1.9514    1.0023 H         1 <0>         0.0609
     23 H6          2.5581    1.8093   -1.9278 H         1 <0>         0.1200
     24 H7         -0.9666   -0.3811    0.3300 H         1 <0>         0.0863
     25 H8          0.2033   -0.3579   -1.0091 H         1 <0>         0.1079
     26 H9          3.7964   -1.5456   -1.4229 H         1 <0>         0.0631
     27 H10         3.8236   -0.1264   -2.4968 H         1 <0>         0.0655
     28 H11         6.4142    1.6307   -0.7107 H         1 <0>         0.3269
     29 H12         5.4710    1.6137   -2.0803 H         1 <0>         0.3312
     30 H13         2.3910   -1.8760    3.4740 H         1 <0>         0.4529
@<TRIPOS>BOND
     1    1   11 1
     2    1    2 1
     3    1   19 1
     4    1   20 1
     5    2    3 1
     6    2   21 1
     7    2   22 1
     8    3    4 2
     9    3   23 1
    10    4    5 1
    11    4   12 1
    12    5    9 1
    13    5    6 2
    14    6    7 1
    15    6   11 1
    16    7    8 1
    17    8    9 am
    18    8   30 1
    19    9   10 2
    20   11   24 1
    21   11   25 1
    22   12   13 1
    23   12   26 1
    24   12   27 1
    25   13   14 1
    26   13   15 1
    27   13   18 1
    28   15   16 2
    29   15   17 1
    30   18   28 1
    31   18   29 1
@<TRIPOS>MOLECULE
CHEMBL125440
   21    22     0     0     0
SMALL
USER_CHARGES

@<TRIPOS>ATOM
      1 C1         -0.0179    1.4661    0.0101 C.3       1 <0>        -0.0024
      2 C2          1.4342    1.9621   -0.0011 C.3       1 <0>         0.0182
      3 H1          1.5966    2.8197    0.6518 H         1 <0>         0.1300
      4 C3          2.2770    0.7151    0.3976 C.3       1 <0>        -0.0923
      5 H2          2.5575    0.6937    1.4507 H         1 <0>         0.1387
      6 C4          1.3872   -0.4694   -0.0232 C.3       1 <0>        -0.0420
      7 H3          1.6340   -0.7784   -1.0389 H         1 <0>         0.1264
      8 N1          0.0021   -0.0041    0.0020 N.4       1 <0>        -0.4833
      9 C5          1.5817   -1.6227    0.9272 C.2       1 <0>         0.4930
     10 O1          0.6885   -1.9368    1.6954 O.co2     1 <0>        -0.6886
     11 O2          2.6321   -2.2416    0.9279 O.co2     1 <0>        -0.5790
     12 C6          3.4641    0.8176   -0.5420 C.2       1 <0>         0.0867
     13 N2          3.1657    1.6451   -1.4864 N.2       1 <0>        -0.2591
     14 O3          1.8563    2.1968   -1.3575 O.3       1 <0>        -0.2315
     15 C7          4.7406    0.0958   -0.3998 C.2       1 <0>         0.5398
     16 O4          5.6302    0.2587   -1.2232 O.co2     1 <0>        -0.6601
     17 O5          4.9107   -0.6662    0.5416 O.co2     1 <0>        -0.6142
     18 H4         -0.5220    1.8226    0.9083 H         1 <0>         0.1357
     19 H5         -0.5390    1.8322   -0.8745 H         1 <0>         0.1352
     20 H6         -0.4424   -0.3519    0.8384 H         1 <0>         0.4293
     21 H7         -0.4930   -0.3435   -0.8090 H         1 <0>         0.4196
@<TRIPOS>BOND
     1    1    8 1
     2    1    2 1
     3    1   18 1
     4    1   19 1
     5    2    3 1
     6    2   14 1
     7    2    4 1
     8    4    5 1
     9    4    6 1
    10    4   12 1
    11    6    7 1
    12    6    8 1
    13    6    9 1
    14    8   20 1
    15    8   21 1
    16    9   10 2
    17    9   11 1
    18   12   13 2
    19   12   15 1
    20   13   14 1
    21   15   16 2
    22   15   17 1
@<TRIPOS>MOLECULE
CHEMBL125440__1
   20    21     0     0     0
SMALL
USER_CHARGES

@<TRIPOS>ATOM
      1 C1         -0.0179    1.4661    0.0101 C.3       1 <0>         0.0581
      2 C2          1.4342    1.9621   -0.0011 C.3       1 <0>         0.0142
      3 H1          1.5966    2.8197    0.6518 H         1 <0>         0.0857
      4 C3          2.2770    0.7151    0.3976 C.3       1 <0>        -0.1030
      5 H2          2.5575    0.6937    1.4507 H         1 <0>         0.1035
      6 C4          1.3872   -0.4694   -0.0232 C.3       1 <0>         0.0295
      7 H3          1.6340   -0.7784   -1.0389 H         1 <0>         0.0711
      8 N1          0.0021   -0.0041    0.0020 N.3       1 <0>        -0.6665
      9 C5          1.5817   -1.6227    0.9272 C.2       1 <0>         0.4897
     10 O1          0.6885   -1.9368    1.6954 O.co2     1 <0>        -0.7144
     11 O2          2.6321   -2.2416    0.9279 O.co2     1 <0>        -0.6443
     12 C6          3.4641    0.8176   -0.5420 C.2       1 <0>         0.0837
     13 N2          3.1657    1.6451   -1.4864 N.2       1 <0>        -0.2908
     14 O3          1.8563    2.1968   -1.3575 O.3       1 <0>        -0.2327
     15 C7          4.7406    0.0958   -0.3998 C.2       1 <0>         0.5463
     16 O4          5.6302    0.2587   -1.2232 O.co2     1 <0>        -0.6835
     17 O5          4.9107   -0.6662    0.5416 O.co2     1 <0>        -0.6211
     18 H4         -0.5220    1.8226    0.9083 H         1 <0>         0.0506
     19 H5         -0.5390    1.8322   -0.8745 H         1 <0>         0.0747
     20 H6         -0.4775   -0.3766    0.8078 H         1 <0>         0.3493
@<TRIPOS>BOND
     1    1    8 1
     2    1    2 1
     3    1   18 1
     4    1   19 1
     5    2    3 1
     6    2   14 1
     7    2    4 1
     8    4    5 1
     9    4    6 1
    10    4   12 1
    11    6    7 1
    12    6    8 1
    13    6    9 1
    14    8   20 1
    15    9   10 2
    16    9   11 1
    17   12   13 2
    18   12   15 1
    19   13   14 1
    20   15   16 2
    21   15   17 1
@<TRIPOS>MOLECULE
CHEMBL482080
   30    29     0     0     0
SMALL
USER_CHARGES

@<TRIPOS>ATOM
      1 C1         -0.0477    1.3724    0.1296 C.3       1 <0>         0.0332
      2 O1         -0.1711   -0.0430   -0.0240 O.3       1 <0>        -0.3577
      3 C2          0.5663   -0.6180   -0.9869 C.2       1 <0>         0.4623
      4 O2          1.2925    0.0579   -1.6766 O.2       1 <0>        -0.5087
      5 C3          0.4885   -2.1067   -1.2079 C.3       1 <0>        -0.1090
      6 C4          1.4203   -2.5014   -2.3555 C.3       1 <0>        -0.0841
      7 C5          1.4363   -4.0246   -2.4985 C.3       1 <0>        -0.1695
      8 H1          1.7046   -4.4764   -1.5436 H         1 <0>         0.0517
      9 C6          2.4631   -4.4264   -3.5592 C.3       1 <0>        -0.1004
     10 C7          2.5814   -5.9512   -3.6027 C.3       1 <0>        -0.0449
     11 H2          1.5942   -6.3881   -3.7533 H         1 <0>         0.1375
     12 C8          3.4870   -6.3526   -4.7385 C.2       1 <0>         0.4954
     13 O3          4.5886   -6.8193   -4.5041 O.co2     1 <0>        -0.6898
     14 O4          3.1179   -6.2106   -5.8918 O.co2     1 <0>        -0.6371
     15 N1          3.1428   -6.4351   -2.3344 N.4       1 <0>        -0.6090
     16 C9          0.0698   -4.5044   -2.9150 C.2       1 <0>         0.4942
     17 O5         -0.4556   -4.0522   -3.9180 O.co2     1 <0>        -0.6740
     18 O6         -0.5103   -5.3449   -2.2490 O.co2     1 <0>        -0.7033
     19 H3          0.9868    1.6237    0.3636 H         1 <0>         0.0571
     20 H4         -0.3406    1.8654   -0.7974 H         1 <0>         0.0589
     21 H5         -0.6952    1.7077    0.9398 H         1 <0>         0.0981
     22 H6          0.7922   -2.6253   -0.2986 H         1 <0>         0.1005
     23 H7         -0.5353   -2.3836   -1.4595 H         1 <0>         0.1125
     24 H8          1.0643   -2.0530   -3.2831 H         1 <0>         0.0821
     25 H9          2.4286   -2.1457   -2.1435 H         1 <0>         0.0611
     26 H10         2.1416   -4.0590   -4.5338 H         1 <0>         0.1110
     27 H11         3.4319   -3.9938   -3.3094 H         1 <0>         0.0665
     28 H12         3.2208   -7.4407   -2.3631 H         1 <0>         0.4249
     29 H13         4.0567   -6.0307   -2.1950 H         1 <0>         0.4227
     30 H14         2.5365   -6.1664   -1.5739 H         1 <0>         0.4176
@<TRIPOS>BOND
     1    1    2 1
     2    1   19 1
     3    1   20 1
     4    1   21 1
     5    2    3 1
     6    3    4 2
     7    3    5 1
     8    5    6 1
     9    5   22 1
    10    5   23 1
    11    6    7 1
    12    6   24 1
    13    6   25 1
    14    7    8 1
    15    7    9 1
    16    7   16 1
    17    9   10 1
    18    9   26 1
    19    9   27 1
    20   10   11 1
    21   10   12 1
    22   10   15 1
    23   12   13 2
    24   12   14 1
    25   15   28 1
    26   15   29 1
    27   15   30 1
    28   16   17 2
    29   16   18 1
@<TRIPOS>MOLECULE
CHEMBL222418
   20    21     0     0     0
SMALL
USER_CHARGES

@<TRIPOS>ATOM
      1 C1         -0.0167    1.3839    0.0097 C.ar      1 <0>        -0.0630
      2 C2          1.1833    2.0914    0.0020 C.ar      1 <0>        -0.0261
      3 C3          2.4047    1.4046   -0.0138 C.ar      1 <0>         0.0012
      4 C4          2.4314    0.0433   -0.0218 C.ar      1 <0>        -0.0577
      5 C5          1.2325   -0.6870   -0.0138 C.ar      1 <0>         0.2039
      6 C6          0.0021   -0.0041    0.0020 C.ar      1 <0>         0.0789
      7 N1         -1.1854   -0.7142    0.0095 N.am      1 <0>        -0.6292
      8 H1         -2.0367   -0.2493    0.0198 H         1 <0>         0.4071
      9 C7         -1.1422   -2.0644    0.0019 C.2       1 <0>         0.4776
     10 O1         -2.1711   -2.7145    0.0078 O.2       1 <0>        -0.5067
     11 C8          0.1686   -2.7399   -0.0142 C.2       1 <0>         0.4272
     12 O2          0.2320   -4.0926   -0.0221 O.3       1 <0>        -0.5987
     13 N2          1.2689   -2.0352   -0.0223 N.2       1 <0>        -0.5994
     14 N3          3.6750    2.1645   -0.0223 N.pl3     1 <0>         0.0371
     15 O3          4.7311    1.5764   -0.0360 O.2       1 <0>        -0.1514
     16 O4          3.6562    3.3734   -0.0157 O.3       1 <0>        -0.1712
     17 C9          1.1687    3.5233    0.0098 C.1       1 <0>         0.2573
     18 N4          1.1571    4.6592    0.0160 N.1       1 <0>        -0.4011
     19 H2         -0.9580    1.9132    0.0260 H         1 <0>         0.1477
     20 H3          3.3781   -0.4763   -0.0347 H         1 <0>         0.1666
@<TRIPOS>BOND
     1    1    6 ar
     2    1    2 ar
     3    1   19 1
     4    2    3 ar
     5    2   17 1
     6    3    4 ar
     7    3   14 1
     8    4    5 ar
     9    4   20 1
    10    5   13 1
    11    5    6 ar
    12    6    7 1
    13    7    8 1
    14    7    9 am
    15    9   10 2
    16    9   11 1
    17   11   12 1
    18   11   13 2
    19   14   15 2
    20   14   16 1
    21   17   18 3
@<TRIPOS>MOLECULE
CHEMBL222418__1
   20    21     0     0     0
SMALL
USER_CHARGES

@<TRIPOS>ATOM
      1 C1         -0.0169    1.3949    0.0097 C.ar      1 <0>        -0.0692
      2 C2          1.1825    2.0985    0.0020 C.ar      1 <0>         0.0404
      3 C3          2.4026    1.4090   -0.0138 C.ar      1 <0>        -0.0632
      4 C4          2.4267    0.0450   -0.0218 C.ar      1 <0>        -0.0517
      5 C5          1.2370   -0.6797   -0.0139 C.ar      1 <0>         0.0642
      6 C6          0.0021   -0.0041    0.0020 C.ar      1 <0>         0.2182
      7 N1         -1.1632   -0.6959    0.0090 N.2       1 <0>        -0.5980
      8 C7         -1.1681   -2.0022    0.0020 C.2       1 <0>         0.4289
      9 O1         -2.3442   -2.6747    0.0087 O.3       1 <0>        -0.5934
     10 C8          0.1047   -2.7452   -0.0136 C.2       1 <0>         0.4778
     11 O2          0.1069   -3.9623   -0.0202 O.2       1 <0>        -0.5068
     12 N2          1.2684   -2.0601   -0.0216 N.am      1 <0>        -0.6286
     13 H1          2.1158   -2.5320   -0.0331 H         1 <0>         0.4076
     14 N3          3.6744    2.1663   -0.0224 N.pl3     1 <0>         0.0499
     15 O3          4.7294    1.5760   -0.0360 O.2       1 <0>        -0.1745
     16 O4          3.6582    3.3752   -0.0157 O.3       1 <0>        -0.1799
     17 C9          1.1710    3.5304    0.0098 C.1       1 <0>         0.2528
     18 N4          1.1619    4.6664    0.0160 N.1       1 <0>        -0.3889
     19 H2         -0.9576    1.9253    0.0260 H         1 <0>         0.1606
     20 H3          3.3728   -0.4756   -0.0347 H         1 <0>         0.1539
@<TRIPOS>BOND
     1    1    6 ar
     2    1    2 ar
     3    1   19 1
     4    2    3 ar
     5    2   17 1
     6    3    4 ar
     7    3   14 1
     8    4    5 ar
     9    4   20 1
    10    5   12 1
    11    5    6 ar
    12    6    7 1
    13    7    8 2
    14    8    9 1
    15    8   10 1
    16   10   11 2
    17   10   12 am
    18   12   13 1
    19   14   15 2
    20   14   16 1
    21   17   18 3
@<TRIPOS>MOLECULE
CHEMBL222519
   31    33     0     0     0
SMALL
USER_CHARGES

@<TRIPOS>ATOM
      1 C1          0.2332    1.3841    0.6570 C.ar      1 <0>        -0.1163
      2 C2          1.3450    2.1030    0.3352 C.ar      1 <0>        -0.0461
      3 C3          2.5286    1.4337   -0.0104 C.ar      1 <0>        -0.0508
      4 C4          2.5507    0.0178   -0.0197 C.ar      1 <0>         0.0703
      5 C5          1.3858   -0.6903    0.3181 C.ar      1 <0>        -0.6623
      6 C6          0.2539   -0.0082    0.6481 C.ar      1 <0>         0.0100
      7 S1          1.3881   -2.4523    0.3133 S.o2      1 <0>         2.6604
      8 O1          1.2671   -2.8548   -1.0441 O.2       1 <0>        -0.9037
      9 O2          2.4738   -2.8593    1.1348 O.2       1 <0>        -0.9426
     10 N1          0.0047   -2.9457    1.0783 N.pl3     1 <0>        -1.2465
     11 C7          3.7370   -0.6553   -0.3670 C.ar      1 <0>        -0.0313
     12 C8          4.8514    0.0498   -0.6900 C.ar      1 <0>        -0.0208
     13 C9          4.8498    1.4521   -0.6862 C.ar      1 <0>         0.1138
     14 C10         3.6989    2.1491   -0.3497 C.ar      1 <0>         0.1787
     15 N2          3.6832    3.5358   -0.3424 N.am      1 <0>        -0.6274
     16 H1          2.8706    4.0090   -0.1045 H         1 <0>         0.4261
     17 C11         4.7946    4.2283   -0.6646 C.2       1 <0>         0.5118
     18 O3          4.7862    5.4433   -0.6593 O.2       1 <0>        -0.4441
     19 C12         6.0334    3.4831   -1.0268 C.2       1 <0>         0.5112
     20 O4          7.0481    4.0831   -1.3210 O.2       1 <0>        -0.4495
     21 N3          6.0144    2.1351   -1.0235 N.am      1 <0>        -0.6258
     22 H2          6.8149    1.6397   -1.2576 H         1 <0>         0.4304
     23 N4          3.7698   -2.1354   -0.3796 N.pl3     1 <0>        -0.0336
     24 O5          4.3500   -2.7346    0.4957 O.2       1 <0>        -0.0101
     25 O6          3.2166   -2.7448   -1.2651 O.3       1 <0>        -0.1547
     26 H3         -0.6756    1.9014    0.9270 H         1 <0>         0.1537
     27 H4          1.3152    3.1825    0.3457 H         1 <0>         0.1466
     28 H5         -0.6405   -0.5552    0.9075 H         1 <0>         0.1465
     29 H6         -0.6187   -2.2884    1.4249 H         1 <0>         0.4109
     30 H7         -0.1821   -3.8921    1.1798 H         1 <0>         0.4276
     31 H8          5.7553   -0.4788   -0.9543 H         1 <0>         0.1677
@<TRIPOS>BOND
     1    1    6 ar
     2    1    2 ar
     3    1   26 1
     4    2    3 ar
     5    2   27 1
     6    3   14 ar
     7    3    4 ar
     8    4    5 ar
     9    4   11 ar
    10    5    6 ar
    11    5    7 1
    12    6   28 1
    13    7    8 2
    14    7    9 2
    15    7   10 1
    16   10   29 1
    17   10   30 1
    18   11   12 ar
    19   11   23 1
    20   12   13 ar
    21   12   31 1
    22   13   21 1
    23   13   14 ar
    24   14   15 1
    25   15   16 1
    26   15   17 am
    27   17   18 2
    28   17   19 1
    29   19   20 2
    30   19   21 am
    31   21   22 1
    32   23   24 2
    33   23   25 1
@<TRIPOS>MOLECULE
CHEMBL222519__1
   30    32     0     0     0
SMALL
USER_CHARGES

@<TRIPOS>ATOM
      1 C1         -0.6276    0.4370   -1.7736 C.ar      1 <0>        -0.1731
      2 C2          0.3567    1.2003   -2.3318 C.ar      1 <0>         0.0069
      3 C3          1.6968    0.8795   -2.0978 C.ar      1 <0>        -0.0630
      4 C4          2.0190   -0.2327   -1.2850 C.ar      1 <0>         0.0918
      5 C5          0.9824   -0.9962   -0.7260 C.ar      1 <0>        -0.6997
      6 C6         -0.3146   -0.6572   -0.9739 C.ar      1 <0>         0.0068
      7 S1          1.3554   -2.3868    0.2896 S.o2      1 <0>         2.6622
      8 O1          1.7041   -3.4487   -0.5879 O.2       1 <0>        -0.9158
      9 O2          2.2299   -1.9224    1.3088 O.2       1 <0>        -0.9452
     10 N1         -0.0506   -2.8358    1.0407 N.pl3     1 <0>        -1.2459
     11 C7          3.3708   -0.5559   -1.0503 C.ar      1 <0>        -0.1204
     12 C8          4.3691    0.1831   -1.5919 C.ar      1 <0>         0.0054
     13 C9          4.1065    1.2943   -2.4040 C.ar      1 <0>        -0.0110
     14 C10         2.7853    1.6709   -2.6771 C.ar      1 <0>         0.2503
     15 N2          2.5158    2.7321   -3.4521 N.2       1 <0>        -0.5968
     16 C11         3.4796    3.4477   -3.9760 C.2       1 <0>         0.4326
     17 O3          3.1851    4.5165   -4.7560 O.3       1 <0>        -0.5869
     18 C12         4.8815    3.0897   -3.7160 C.2       1 <0>         0.4736
     19 O4          5.7864    3.7475   -4.1978 O.2       1 <0>        -0.5174
     20 N3          5.1522    2.0207   -2.9364 N.am      1 <0>        -0.6182
     21 H1          6.0702    1.7673   -2.7519 H         1 <0>         0.4056
     22 N4          3.7049   -1.7200   -0.1990 N.pl3     1 <0>        -0.0190
     23 O5          4.1212   -1.5487    0.9230 O.2       1 <0>        -0.0412
     24 O6          3.5614   -2.8420   -0.6258 O.3       1 <0>        -0.1772
     25 H2         -1.6628    0.6885   -1.9514 H         1 <0>         0.1355
     26 H3          0.1015    2.0474   -2.9513 H         1 <0>         0.1531
     27 H4         -1.1104   -1.2463   -0.5426 H         1 <0>         0.1338
     28 H5         -0.4520   -3.6967    0.8440 H         1 <0>         0.4197
     29 H6         -0.4727   -2.2379    1.6772 H         1 <0>         0.4165
     30 H7          5.3943   -0.0914   -1.3921 H         1 <0>         0.1369
@<TRIPOS>BOND
     1    1    6 ar
     2    1    2 ar
     3    1   25 1
     4    2    3 ar
     5    2   26 1
     6    3   14 ar
     7    3    4 ar
     8    4    5 ar
     9    4   11 ar
    10    5    6 ar
    11    5    7 1
    12    6   27 1
    13    7    8 2
    14    7    9 2
    15    7   10 1
    16   10   28 1
    17   10   29 1
    18   11   12 ar
    19   11   22 1
    20   12   13 ar
    21   12   30 1
    22   13   20 1
    23   13   14 ar
    24   14   15 1
    25   15   16 2
    26   16   17 1
    27   16   18 1
    28   18   19 2
    29   18   20 am
    30   20   21 1
    31   22   23 2
    32   22   24 1
@<TRIPOS>MOLECULE
CHEMBL222519__2
   30    32     0     0     0
SMALL
USER_CHARGES

@<TRIPOS>ATOM
      1 C1          0.2456    1.3834    0.6714 C.ar      1 <0>        -0.1313
      2 C2          1.3577    2.1012    0.3447 C.ar      1 <0>        -0.0563
      3 C3          2.5384    1.4313   -0.0062 C.ar      1 <0>        -0.0329
      4 C4          2.5597    0.0160   -0.0166 C.ar      1 <0>         0.0376
      5 C5          1.3970   -0.6903    0.3261 C.ar      1 <0>        -0.6495
      6 C6          0.2655   -0.0079    0.6614 C.ar      1 <0>        -0.0272
      7 S1          1.3984   -2.4523    0.3206 S.o2      1 <0>         2.6599
      8 O1          1.2733   -2.8543   -1.0366 O.2       1 <0>        -0.9123
      9 O2          2.4863   -2.8602    1.1387 O.2       1 <0>        -0.9464
     10 N1          0.0171   -2.9454    1.0895 N.pl3     1 <0>        -1.2511
     11 C7          3.7448   -0.6631   -0.3704 C.ar      1 <0>        -0.0537
     12 C8          4.8595    0.0289   -0.6994 C.ar      1 <0>         0.0031
     13 C9          4.8669    1.4424   -0.6970 C.ar      1 <0>         0.1698
     14 C10         3.7083    2.1457   -0.3510 C.ar      1 <0>         0.0654
     15 N2          3.7054    3.5214   -0.3466 N.am      1 <0>        -0.6172
     16 H1          2.9024    4.0100   -0.1071 H         1 <0>         0.4012
     17 C11         4.8349    4.1831   -0.6796 C.2       1 <0>         0.4746
     18 O3          4.8602    5.4008   -0.6836 O.2       1 <0>        -0.5142
     19 C12         6.0339    3.4096   -1.0369 C.2       1 <0>         0.4197
     20 O4          7.1791    4.0511   -1.3748 O.3       1 <0>        -0.6118
     21 N3          5.9939    2.1025   -1.0293 N.2       1 <0>        -0.5931
     22 N4          3.7686   -2.1433   -0.3812 N.pl3     1 <0>        -0.0254
     23 O5          4.3466   -2.7449    0.4938 O.2       1 <0>        -0.0281
     24 O6          3.2101   -2.7504   -1.2650 O.3       1 <0>        -0.1734
     25 H2         -0.6615    1.9014    0.9458 H         1 <0>         0.1381
     26 H3          1.3293    3.1807    0.3559 H         1 <0>         0.1345
     27 H4         -0.6278   -0.5549    0.9243 H         1 <0>         0.1324
     28 H5         -0.6050   -2.2879    1.4382 H         1 <0>         0.4093
     29 H6         -0.1699   -3.8918    1.1912 H         1 <0>         0.4219
     30 H7          5.7581   -0.5068   -0.9677 H         1 <0>         0.1561
@<TRIPOS>BOND
     1    1    6 ar
     2    1    2 ar
     3    1   25 1
     4    2    3 ar
     5    2   26 1
     6    3   14 ar
     7    3    4 ar
     8    4    5 ar
     9    4   11 ar
    10    5    6 ar
    11    5    7 1
    12    6   27 1
    13    7    8 2
    14    7    9 2
    15    7   10 1
    16   10   28 1
    17   10   29 1
    18   11   12 ar
    19   11   22 1
    20   12   13 ar
    21   12   30 1
    22   13   21 1
    23   13   14 ar
    24   14   15 1
    25   15   16 1
    26   15   17 am
    27   17   18 2
    28   17   19 1
    29   19   20 1
    30   19   21 2
    31   22   23 2
    32   22   24 1
@<TRIPOS>MOLECULE
CHEMBL305346
   39    39     0     0     0
SMALL
USER_CHARGES

@<TRIPOS>ATOM
      1 C1         -0.0173    1.4248    0.0099 C.3       1 <0>         0.0287
      2 O1          0.0021   -0.0041    0.0020 O.3       1 <0>        -0.3207
      3 C2         -1.2003   -0.6375    0.0101 C.ar      1 <0>         0.1235
      4 C3         -2.3748    0.1031    0.0195 C.ar      1 <0>        -0.2186
      5 C4         -3.6005   -0.5358    0.0273 C.ar      1 <0>        -0.0758
      6 C5         -3.6647   -1.9146    0.0258 C.ar      1 <0>        -0.1530
      7 C6         -2.4897   -2.6671    0.0163 C.ar      1 <0>         0.0017
      8 C7         -1.2537   -2.0210    0.0032 C.ar      1 <0>        -0.1512
      9 C8         -2.5547   -4.1438    0.0148 C.2       1 <0>        -0.1622
     10 C9         -3.7308   -4.7555    0.0223 C.2       1 <0>        -0.0901
     11 C10        -3.7971   -6.2611    0.0206 C.3       1 <0>        -0.0750
     12 C11        -4.6376   -6.7358    1.2076 C.3       1 <0>        -0.1651
     13 H1         -4.2319   -6.3197    2.1297 H         1 <0>         0.0513
     14 C12        -4.6023   -8.2638    1.2789 C.3       1 <0>        -0.1012
     15 C13        -5.3383   -8.7329    2.5355 C.3       1 <0>        -0.0445
     16 H2         -6.3474   -8.3207    2.5408 H         1 <0>         0.1363
     17 C14        -5.4105  -10.2381    2.5430 C.2       1 <0>         0.4957
     18 O2         -4.7560  -10.8758    3.3501 O.co2     1 <0>        -0.6898
     19 O3         -6.1233  -10.8182    1.7418 O.co2     1 <0>        -0.6371
     20 N1         -4.6147   -8.2714    3.7277 N.4       1 <0>        -0.6097
     21 C15        -6.0613   -6.2739    1.0317 C.2       1 <0>         0.4956
     22 O4         -6.7013   -6.6291    0.0567 O.co2     1 <0>        -0.6756
     23 O5         -6.5730   -5.5450    1.8644 O.co2     1 <0>        -0.7028
     24 H3          1.0053    1.8021    0.0021 H         1 <0>         0.0972
     25 H4         -0.5445    1.7859   -0.8732 H         1 <0>         0.0540
     26 H5         -0.5275    1.7763    0.9067 H         1 <0>         0.0539
     27 H6         -2.3305    1.1822    0.0211 H         1 <0>         0.1239
     28 H7         -4.5107    0.0455    0.0349 H         1 <0>         0.1248
     29 H8         -4.6240   -2.4108    0.0322 H         1 <0>         0.1308
     30 H9         -0.3409   -2.5982   -0.0082 H         1 <0>         0.1290
     31 H10        -1.6441   -4.7245    0.0075 H         1 <0>         0.1171
     32 H11        -4.6414   -4.1749    0.0296 H         1 <0>         0.1188
     33 H12        -4.2535   -6.6037   -0.9080 H         1 <0>         0.0884
     34 H13        -2.7897   -6.6692    0.1025 H         1 <0>         0.0596
     35 H14        -5.0884   -8.6800    0.3965 H         1 <0>         0.1113
     36 H15        -3.5668   -8.6019    1.3167 H         1 <0>         0.0652
     37 H16        -4.5664   -7.2636    3.7228 H         1 <0>         0.4182
     38 H17        -5.1000   -8.5808    4.5565 H         1 <0>         0.4248
     39 H18        -3.6806   -8.6529    3.7229 H         1 <0>         0.4227
@<TRIPOS>BOND
     1    1    2 1
     2    1   24 1
     3    1   25 1
     4    1   26 1
     5    2    3 1
     6    3    8 ar
     7    3    4 ar
     8    4    5 ar
     9    4   27 1
    10    5    6 ar
    11    5   28 1
    12    6    7 ar
    13    6   29 1
    14    7    8 ar
    15    7    9 1
    16    8   30 1
    17    9   10 2
    18    9   31 1
    19   10   11 1
    20   10   32 1
    21   11   12 1
    22   11   33 1
    23   11   34 1
    24   12   13 1
    25   12   14 1
    26   12   21 1
    27   14   15 1
    28   14   35 1
    29   14   36 1
    30   15   16 1
    31   15   17 1
    32   15   20 1
    33   17   18 2
    34   17   19 1
    35   20   37 1
    36   20   38 1
    37   20   39 1
    38   21   22 2
    39   21   23 1
@<TRIPOS>MOLECULE
CHEMBL14935
   40    42     0     0     0
SMALL
USER_CHARGES

@<TRIPOS>ATOM
      1 C1         -0.0187    1.5261    0.0104 C.3       1 <0>        -0.1238
      2 C2          1.4178    2.0522   -0.0005 C.3       1 <0>        -0.1090
      3 C3          2.1605    1.5450    1.2347 C.3       1 <0>        -0.0988
      4 H1          3.1856    1.9153    1.2176 H         1 <0>         0.0868
      5 C4          1.4628    2.0425    2.5014 C.3       1 <0>        -0.0134
      6 N1          2.1937    1.5679    3.6830 N.4       1 <0>        -0.4785
      7 C5          2.1694    0.1013    3.7306 C.3       1 <0>        -0.0519
      8 H2          1.1357   -0.2442    3.7341 H         1 <0>         0.1318
      9 C6          2.8921   -0.4673    2.5073 C.3       1 <0>        -0.1138
     10 C7          2.1737    0.0143    1.2417 C.3       1 <0>        -0.0947
     11 H3          2.7053   -0.3518    0.3633 H         1 <0>         0.0946
     12 C8          0.7355   -0.5089    1.2457 C.3       1 <0>        -0.1170
     13 C9          0.0021   -0.0041    0.0020 C.3       1 <0>        -0.0847
     14 H4          0.5174   -0.3558   -0.8918 H         1 <0>         0.0750
     15 C10        -1.4332   -0.5339    0.0057 C.3       1 <0>        -0.1042
     16 C11        -2.1288   -0.1316   -1.2963 C.3       1 <0>         0.0018
     17 C12        -3.5425   -0.6535   -1.2927 C.2       1 <0>         0.0495
     18 N2         -4.6155   -0.0251   -0.8348 N.2       1 <0>        -0.3915
     19 N3         -5.6282   -0.8032   -1.0123 N.2       1 <0>        -0.2004
     20 N4         -5.2266   -1.8948   -1.5645 N.2       1 <0>        -0.1995
     21 N5         -3.9528   -1.8267   -1.7520 N.2       1 <0>        -0.3897
     22 C13         2.8601   -0.3710    4.9839 C.2       1 <0>         0.4920
     23 O1          3.3287    0.4400    5.7643 O.co2     1 <0>        -0.6807
     24 O2          2.9504   -1.5643    5.2174 O.co2     1 <0>        -0.6381
     25 H5         -0.5282    1.8780    0.9075 H         1 <0>         0.0620
     26 H6         -0.5452    1.8876   -0.8729 H         1 <0>         0.0774
     27 H7          1.9259    1.7013   -0.8987 H         1 <0>         0.0781
     28 H8          1.4050    3.1421    0.0060 H         1 <0>         0.0687
     29 H9          1.4423    3.1323    2.5006 H         1 <0>         0.1224
     30 H10         0.4423    1.6603    2.5278 H         1 <0>         0.1295
     31 H11         3.1501    1.8859    3.6355 H         1 <0>         0.4200
     32 H12         3.9255   -0.1208    2.5008 H         1 <0>         0.0773
     33 H13         2.8717   -1.5564    2.5456 H         1 <0>         0.1095
     34 H14         0.7457   -1.5988    1.2436 H         1 <0>         0.0759
     35 H15         0.2223   -0.1530    2.1391 H         1 <0>         0.0596
     36 H16        -1.4192   -1.6206    0.0893 H         1 <0>         0.0633
     37 H17        -1.9744   -0.1114    0.8523 H         1 <0>         0.0593
     38 H18        -2.1429    0.9551   -1.3799 H         1 <0>         0.0649
     39 H19        -1.5876   -0.5541   -2.1429 H         1 <0>         0.0636
     40 H20         1.7601    1.9373    4.5159 H         1 <0>         0.4265
@<TRIPOS>BOND
     1    1   13 1
     2    1    2 1
     3    1   25 1
     4    1   26 1
     5    2    3 1
     6    2   27 1
     7    2   28 1
     8    3    4 1
     9    3   10 1
    10    3    5 1
    11    5    6 1
    12    5   29 1
    13    5   30 1
    14    6    7 1
    15    6   31 1
    16    6   40 1
    17    7    8 1
    18    7    9 1
    19    7   22 1
    20    9   10 1
    21    9   32 1
    22    9   33 1
    23   10   11 1
    24   10   12 1
    25   12   13 1
    26   12   34 1
    27   12   35 1
    28   13   14 1
    29   13   15 1
    30   15   16 1
    31   15   36 1
    32   15   37 1
    33   16   38 1
    34   16   39 1
    35   16   17 1
    36   17   18 2
    37   17   21 1
    38   18   19 1
    39   19   20 2
    40   20   21 1
    41   22   23 2
    42   22   24 1
@<TRIPOS>MOLECULE
CHEMBL12465
   39    41     0     0     0
SMALL
USER_CHARGES

@<TRIPOS>ATOM
      1 C1          0.0110    1.0593    0.7313 C.2       1 <0>        -0.1767
      2 C2          1.3072    1.2000    1.0762 C.2       1 <0>         0.0573
      3 N1          2.0754    0.7848    0.0264 N.pl3     1 <0>        -0.3920
      4 C3          1.2517    0.3805   -0.9850 C.2       1 <0>         0.0472
      5 C4         -0.0242    0.5388   -0.5779 C.2       1 <0>        -0.2432
      6 C5         -1.2612    0.2178   -1.3767 C.3       1 <0>         0.0868
      7 N2         -1.6663    1.4004   -2.1483 N.4       1 <0>        -0.6390
      8 C6          3.4775    0.7758   -0.0078 C.ar      1 <0>         0.1805
      9 C7          4.1500    1.4840   -0.9908 C.ar      1 <0>        -0.1161
     10 C8          5.5389    1.4761   -1.0252 C.ar      1 <0>         0.2268
     11 C9          6.2525    0.7525   -0.0670 C.ar      1 <0>         0.1264
     12 C10         5.5690    0.0444    0.9156 C.ar      1 <0>        -0.0408
     13 C11         4.1904    0.0612    0.9481 C.ar      1 <0>        -0.0569
     14 N3          3.4677   -0.6888    2.0000 N.pl3     1 <0>         0.0399
     15 O1          4.0824   -1.2111    2.9006 O.2       1 <0>        -0.1514
     16 O2          2.2628   -0.7791    1.9585 O.3       1 <0>        -0.1493
     17 N4          7.6449    0.7332   -0.0868 N.am      1 <0>        -0.6320
     18 H1          8.1318    0.2276    0.5826 H         1 <0>         0.4277
     19 C12         8.3172    1.4160   -1.0355 C.2       1 <0>         0.5173
     20 O3          9.5317    1.4014   -1.0573 O.2       1 <0>        -0.4508
     21 C13         7.5550    2.1888   -2.0580 C.2       1 <0>         0.5091
     22 O4          8.1422    2.8099   -2.9210 O.2       1 <0>        -0.4340
     23 N5          6.2072    2.1899   -2.0159 N.am      1 <0>        -0.4916
     24 C14         5.4450    2.9434   -3.0147 C.3       1 <0>         0.0173
     25 C15         5.2106    4.3456   -2.5148 C.2       1 <0>         0.4851
     26 O5          5.6404    4.6842   -1.4252 O.co2     1 <0>        -0.6729
     27 O6          4.5912    5.1415   -3.1999 O.co2     1 <0>        -0.6774
     28 H2         -0.8435    1.2975    1.3473 H         1 <0>         0.1510
     29 H3          1.6742    1.5764    2.0196 H         1 <0>         0.1655
     30 H4          1.5675   -0.0003   -1.9450 H         1 <0>         0.1730
     31 H5         -1.0498   -0.6060   -2.0585 H         1 <0>         0.1316
     32 H6         -2.0666   -0.0680   -0.7001 H         1 <0>         0.1365
     33 H7         -1.8619    2.1629   -1.5172 H         1 <0>         0.4350
     34 H8         -0.9207    1.6650   -2.7746 H         1 <0>         0.4335
     35 H9          3.5945    2.0416   -1.7304 H         1 <0>         0.1689
     36 H10         6.1189   -0.5160    1.6572 H         1 <0>         0.1766
     37 H11         6.0062    2.9797   -3.9485 H         1 <0>         0.1084
     38 H12         4.4864    2.4536   -3.1856 H         1 <0>         0.0913
     39 H13        -2.4945    1.1855   -2.6831 H         1 <0>         0.4313
@<TRIPOS>BOND
     1    1    5 1
     2    1    2 2
     3    1   28 1
     4    2    3 1
     5    2   29 1
     6    3    4 1
     7    3    8 1
     8    4    5 2
     9    4   30 1
    10    5    6 1
    11    6    7 1
    12    6   31 1
    13    6   32 1
    14    7   33 1
    15    7   34 1
    16    7   39 1
    17    8   13 ar
    18    8    9 ar
    19    9   10 ar
    20    9   35 1
    21   10   23 1
    22   10   11 ar
    23   11   12 ar
    24   11   17 1
    25   12   13 ar
    26   12   36 1
    27   13   14 1
    28   14   15 2
    29   14   16 1
    30   17   18 1
    31   17   19 am
    32   19   20 2
    33   19   21 1
    34   21   22 2
    35   21   23 am
    36   23   24 1
    37   24   25 1
    38   24   37 1
    39   24   38 1
    40   25   26 2
    41   25   27 1
@<TRIPOS>MOLECULE
CHEMBL12465__1
   38    40     0     0     0
SMALL
USER_CHARGES

@<TRIPOS>ATOM
      1 C1          0.0114    1.0627    0.7330 C.2       1 <0>        -0.1913
      2 C2          1.3075    1.2032    1.0775 C.2       1 <0>         0.0606
      3 N1          2.0755    0.7865    0.0275 N.pl3     1 <0>        -0.3626
      4 C3          1.2509    0.3814   -0.9834 C.2       1 <0>         0.0485
      5 C4         -0.0245    0.5408   -0.5759 C.2       1 <0>        -0.2628
      6 C5         -1.2620    0.2197   -1.3738 C.3       1 <0>         0.0913
      7 N2         -1.6669    1.4017   -2.1464 N.4       1 <0>        -0.6392
      8 C6          3.4750    0.7768   -0.0071 C.ar      1 <0>         0.0837
      9 C7          4.1447    1.4855   -0.9905 C.ar      1 <0>        -0.1047
     10 C8          5.5336    1.4755   -1.0242 C.ar      1 <0>         0.1371
     11 C9          6.2501    0.7449   -0.0582 C.ar      1 <0>         0.1888
     12 C10         5.5507    0.0342    0.9289 C.ar      1 <0>        -0.0602
     13 C11         4.1876    0.0585    0.9521 C.ar      1 <0>        -0.0400
     14 N3          3.4581   -0.6893    2.0007 N.pl3     1 <0>         0.0465
     15 O1          4.0672   -1.2134    2.9040 O.2       1 <0>        -0.1704
     16 O2          2.2531   -0.7759    1.9540 O.3       1 <0>        -0.1768
     17 N4          7.5982    0.7237   -0.0746 N.2       1 <0>        -0.6053
     18 C12         8.2714    1.3776   -0.9839 C.2       1 <0>         0.4331
     19 O3          9.6262    1.3404   -0.9795 O.3       1 <0>        -0.6064
     20 C13         7.5611    2.1543   -2.0134 C.2       1 <0>         0.4788
     21 O4          8.1828    2.7653   -2.8633 O.2       1 <0>        -0.4981
     22 N5          6.2104    2.1806   -2.0023 N.am      1 <0>        -0.4881
     23 C14         5.4737    2.9446   -3.0121 C.3       1 <0>         0.0254
     24 C15         5.2497    4.3494   -2.5147 C.2       1 <0>         0.4869
     25 O5          5.6668    4.6816   -1.4183 O.co2     1 <0>        -0.6708
     26 O6          4.6513    5.1537   -3.2087 O.co2     1 <0>        -0.6994
     27 H1         -0.8428    1.3019    1.3491 H         1 <0>         0.1421
     28 H2          1.6749    1.5805    2.0203 H         1 <0>         0.1588
     29 H3          1.5660    0.0001   -1.9434 H         1 <0>         0.1658
     30 H4         -1.0513   -0.6049   -2.0549 H         1 <0>         0.1274
     31 H5         -2.0672   -0.0651   -0.6966 H         1 <0>         0.1312
     32 H6         -1.8619    2.1649   -1.5160 H         1 <0>         0.4331
     33 H7         -0.9214    1.6652   -2.7733 H         1 <0>         0.4335
     34 H8          3.5890    2.0439   -1.7292 H         1 <0>         0.1433
     35 H9          6.0927   -0.5294    1.6739 H         1 <0>         0.1624
     36 H10         6.0496    2.9742   -3.9371 H         1 <0>         0.0944
     37 H11         4.5115    2.4673   -3.1983 H         1 <0>         0.0774
     38 H12        -2.4954    1.1866   -2.6807 H         1 <0>         0.4258
@<TRIPOS>BOND
     1    1    5 1
     2    1    2 2
     3    1   27 1
     4    2    3 1
     5    2   28 1
     6    3    4 1
     7    3    8 1
     8    4    5 2
     9    4   29 1
    10    5    6 1
    11    6    7 1
    12    6   30 1
    13    6   31 1
    14    7   32 1
    15    7   33 1
    16    7   38 1
    17    8   13 ar
    18    8    9 ar
    19    9   10 ar
    20    9   34 1
    21   10   22 1
    22   10   11 ar
    23   11   12 ar
    24   11   17 1
    25   12   13 ar
    26   12   35 1
    27   13   14 1
    28   14   15 2
    29   14   16 1
    30   17   18 2
    31   18   19 1
    32   18   20 1
    33   20   21 2
    34   20   22 am
    35   22   23 1
    36   23   24 1
    37   23   36 1
    38   23   37 1
    39   24   25 2
    40   24   26 1
@<TRIPOS>MOLECULE
CHEMBL63861
   64    68     0     0     0
SMALL
USER_CHARGES

@<TRIPOS>ATOM
      1 C1          0.2112    0.9722   -0.7852 C.ar      1 <0>        -0.0873
      2 C2          1.4111    1.6570   -0.8335 C.ar      1 <0>        -0.1142
      3 C3          2.6047    0.9689   -0.7204 C.ar      1 <0>        -0.0960
      4 C4          2.5984   -0.4039   -0.5586 C.ar      1 <0>        -0.1572
      5 C5          1.3985   -1.0886   -0.5094 C.ar      1 <0>        -0.0945
      6 C6          0.2050   -0.4007   -0.6239 C.ar      1 <0>        -0.1148
      7 C7          3.8996   -1.1542   -0.4363 C.3       1 <0>         0.0437
      8 N1          4.2868   -1.2357    0.9784 N.4       1 <0>        -0.3831
      9 C8          4.5648    0.1135    1.4882 C.3       1 <0>        -0.0062
     10 C9          4.9498    0.0309    2.9670 C.3       1 <0>         0.0282
     11 N2          6.1381   -0.8215    3.1140 N.3       1 <0>        -0.5349
     12 C10         5.8827   -2.1688    2.5849 C.3       1 <0>         0.0273
     13 C11         5.4899   -2.0680    1.1093 C.3       1 <0>        -0.0046
     14 C12         6.5737   -0.8803    4.5157 C.3       1 <0>         0.1382
     15 C13         7.9203   -1.5521    4.5955 C.2       1 <0>        -0.1749
     16 C14         8.1551   -2.9331    4.7498 C.2       1 <0>        -0.1823
     17 C15         9.4910   -3.1162    4.7747 C.2       1 <0>         0.0023
     18 N3         10.0912   -1.8969    4.6413 N.pl3     1 <0>        -0.4066
     19 C16         9.1213   -0.9426    4.5264 C.2       1 <0>         0.0728
     20 C17        11.4741   -1.6641    4.6207 C.ar      1 <0>         0.1992
     21 C18        12.2659   -2.2844    3.6676 C.ar      1 <0>        -0.1195
     22 C19        13.6358   -2.0540    3.6461 C.ar      1 <0>         0.2266
     23 C20        14.2101   -1.1967    4.5875 C.ar      1 <0>         0.1175
     24 C21        13.4076   -0.5789    5.5406 C.ar      1 <0>        -0.0416
     25 C22        12.0475   -0.8067    5.5529 C.ar      1 <0>        -0.0624
     26 N4         11.1968   -0.1415    6.5653 N.pl3     1 <0>         0.0416
     27 O1         11.6714    0.6939    7.2990 O.2       1 <0>        -0.1636
     28 O2         10.0274   -0.4337    6.6584 O.3       1 <0>        -0.1422
     29 N5         15.5816   -0.9548    4.5808 N.am      1 <0>        -0.6315
     30 H1         15.9713   -0.3581    5.2388 H         1 <0>         0.4260
     31 C23        16.3686   -1.5492    3.6613 C.2       1 <0>         0.5175
     32 O3         17.5654   -1.3418    3.6520 O.2       1 <0>        -0.4568
     33 C24        15.7550   -2.4640    2.6561 C.2       1 <0>         0.5089
     34 O4         16.4471   -3.0092    1.8199 O.2       1 <0>        -0.4396
     35 N6         14.4245   -2.6810    2.6855 N.am      1 <0>        -0.4910
     36 C25        13.8080   -3.5779    1.7049 C.3       1 <0>         0.0168
     37 C26        13.3981   -2.7874    0.4891 C.2       1 <0>         0.4879
     38 O5         13.6021   -1.5862    0.4457 O.co2     1 <0>        -0.6758
     39 O6         12.8625   -3.3492   -0.4512 O.co2     1 <0>        -0.6793
     40 H2         -0.7214    1.5103   -0.8691 H         1 <0>         0.1339
     41 H3          1.4160    2.7295   -0.9599 H         1 <0>         0.1352
     42 H4          3.5421    1.5039   -0.7588 H         1 <0>         0.1325
     43 H5          1.3937   -2.1612   -0.3834 H         1 <0>         0.1306
     44 H6         -0.7324   -0.9357   -0.5859 H         1 <0>         0.1343
     45 H7          3.7783   -2.1600   -0.8384 H         1 <0>         0.1364
     46 H8          4.6749   -0.6304   -0.9955 H         1 <0>         0.1371
     47 H9          5.3864    0.5533    0.9229 H         1 <0>         0.1368
     48 H10         3.6752    0.7338    1.3785 H         1 <0>         0.1312
     49 H11         5.1706    1.0304    3.3416 H         1 <0>         0.1208
     50 H12         4.1232   -0.3963    3.5347 H         1 <0>         0.0562
     51 H13         6.7841   -2.7741    2.6808 H         1 <0>         0.1320
     52 H14         5.0715   -2.6322    3.1463 H         1 <0>         0.0559
     53 H15         5.2862   -3.0651    0.7187 H         1 <0>         0.1339
     54 H16         6.3068   -1.6170    0.5459 H         1 <0>         0.1395
     55 H17         6.6479    0.1309    4.9157 H         1 <0>         0.0900
     56 H18         5.8488   -1.4491    5.0979 H         1 <0>         0.0518
     57 H19         7.4030   -3.7037    4.8331 H         1 <0>         0.1372
     58 H20         9.9985   -4.0635    4.8818 H         1 <0>         0.1647
     59 H21         9.2874    0.1175    4.4040 H         1 <0>         0.1544
     60 H22        11.8182   -2.9472    2.9419 H         1 <0>         0.1689
     61 H23        13.8497    0.0841    6.2695 H         1 <0>         0.1735
     62 H24        14.5245   -4.3461    1.4143 H         1 <0>         0.1071
     63 H25        12.9291   -4.0488    2.1454 H         1 <0>         0.0940
     64 H26         3.5340   -1.6471    1.5097 H         1 <0>         0.4173
@<TRIPOS>BOND
     1    1    6 ar
     2    1    2 ar
     3    1   40 1
     4    2    3 ar
     5    2   41 1
     6    3    4 ar
     7    3   42 1
     8    4    5 ar
     9    4    7 1
    10    5    6 ar
    11    5   43 1
    12    6   44 1
    13    7    8 1
    14    7   45 1
    15    7   46 1
    16    8   13 1
    17    8    9 1
    18    8   64 1
    19    9   10 1
    20    9   47 1
    21    9   48 1
    22   10   11 1
    23   10   49 1
    24   10   50 1
    25   11   12 1
    26   11   14 1
    27   12   13 1
    28   12   51 1
    29   12   52 1
    30   13   53 1
    31   13   54 1
    32   14   15 1
    33   14   55 1
    34   14   56 1
    35   15   19 2
    36   15   16 1
    37   16   17 2
    38   16   57 1
    39   17   18 1
    40   17   58 1
    41   18   19 1
    42   18   20 1
    43   19   59 1
    44   20   25 ar
    45   20   21 ar
    46   21   22 ar
    47   21   60 1
    48   22   35 1
    49   22   23 ar
    50   23   24 ar
    51   23   29 1
    52   24   25 ar
    53   24   61 1
    54   25   26 1
    55   26   27 2
    56   26   28 1
    57   29   30 1
    58   29   31 am
    59   31   32 2
    60   31   33 1
    61   33   34 2
    62   33   35 am
    63   35   36 1
    64   36   37 1
    65   36   62 1
    66   36   63 1
    67   37   38 2
    68   37   39 1
@<TRIPOS>MOLECULE
CHEMBL63861__1
   63    67     0     0     0
SMALL
USER_CHARGES

@<TRIPOS>ATOM
      1 C1          0.1972    0.9707   -0.7553 C.ar      1 <0>        -0.1232
      2 C2          1.3990    1.6514   -0.8136 C.ar      1 <0>        -0.1215
      3 C3          2.5910    0.9595   -0.7083 C.ar      1 <0>        -0.1142
      4 C4          2.5814   -0.4130   -0.5443 C.ar      1 <0>        -0.0732
      5 C5          1.3797   -1.0936   -0.4851 C.ar      1 <0>        -0.0991
      6 C6          0.1876   -0.4019   -0.5918 C.ar      1 <0>        -0.1223
      7 C7          3.8810   -1.1675   -0.4306 C.3       1 <0>         0.0909
      8 N1          4.2784   -1.2482    0.9813 N.3       1 <0>        -0.5333
      9 C8          4.6025    0.0825    1.5141 C.3       1 <0>         0.0542
     10 C9          4.9336   -0.0341    3.0038 C.3       1 <0>         0.0591
     11 N2          6.0621   -0.9585    3.1813 N.3       1 <0>        -0.5360
     12 C10         5.7380   -2.2891    2.6485 C.3       1 <0>         0.0612
     13 C11         5.4070   -2.1725    1.1588 C.3       1 <0>         0.0553
     14 C12         6.4595   -1.0391    4.5932 C.3       1 <0>         0.1336
     15 C13         7.7591   -1.7936    4.7069 C.2       1 <0>        -0.1525
     16 C14         7.9033   -3.1860    4.8698 C.2       1 <0>        -0.1726
     17 C15         9.2242   -3.4521    4.9275 C.2       1 <0>        -0.0085
     18 N3          9.9025   -2.2732    4.8059 N.pl3     1 <0>        -0.4134
     19 C16         8.9973   -1.2605    4.6656 C.2       1 <0>         0.0598
     20 C17        11.2974   -2.1274    4.8181 C.ar      1 <0>         0.2120
     21 C18        12.0714   -2.7995    3.8858 C.ar      1 <0>        -0.1213
     22 C19        13.4532   -2.6553    3.8969 C.ar      1 <0>         0.2254
     23 C20        14.0572   -1.8321    4.8500 C.ar      1 <0>         0.1099
     24 C21        13.2724   -1.1618    5.7821 C.ar      1 <0>        -0.0417
     25 C22        11.9009   -1.3041    5.7621 C.ar      1 <0>        -0.0639
     26 N4         11.0694   -0.5833    6.7522 N.pl3     1 <0>         0.0409
     27 O1         11.5777    0.2235    7.4953 O.2       1 <0>        -0.1727
     28 O2          9.8821   -0.8015    6.8177 O.3       1 <0>        -0.1320
     29 N5         15.4410   -1.6764    4.8758 N.am      1 <0>        -0.6300
     30 H1         15.8514   -1.1028    5.5417 H         1 <0>         0.4242
     31 C23        16.2110   -2.3222    3.9769 C.2       1 <0>         0.5181
     32 O3         17.4184   -2.1901    3.9961 O.2       1 <0>        -0.4649
     33 C24        15.5657   -3.2006    2.9592 C.2       1 <0>         0.5089
     34 O4         16.2421   -3.7911    2.1411 O.2       1 <0>        -0.4462
     35 N6         14.2239   -3.3338    2.9570 N.am      1 <0>        -0.4896
     36 C25        13.5761   -4.1941    1.9637 C.3       1 <0>         0.0168
     37 C26        13.2457   -3.3840    0.7367 C.2       1 <0>         0.4875
     38 O5         13.5255   -2.1980    0.6956 O.co2     1 <0>        -0.6764
     39 O6         12.6987   -3.9146   -0.2150 O.co2     1 <0>        -0.6777
     40 H2         -0.7342    1.5118   -0.8330 H         1 <0>         0.1187
     41 H3          1.4065    2.7238   -0.9417 H         1 <0>         0.1200
     42 H4          3.5299    1.4912   -0.7546 H         1 <0>         0.1191
     43 H5          1.3721   -2.1660   -0.3574 H         1 <0>         0.1216
     44 H6         -0.7513   -0.9337   -0.5459 H         1 <0>         0.1199
     45 H7          3.7533   -2.1735   -0.8302 H         1 <0>         0.0833
     46 H8          4.6538   -0.6472   -0.9964 H         1 <0>         0.0450
     47 H9          5.4625    0.4880    0.9811 H         1 <0>         0.0420
     48 H10         3.7472    0.7452    1.3824 H         1 <0>         0.0799
     49 H11         5.2025    0.9473    3.3945 H         1 <0>         0.0771
     50 H12         4.0644   -0.4140    3.5408 H         1 <0>         0.0394
     51 H13         6.5934   -2.9518    2.7802 H         1 <0>         0.0893
     52 H14         4.8780   -2.6947    3.1815 H         1 <0>         0.0377
     53 H15         5.1381   -3.1539    0.7681 H         1 <0>         0.0780
     54 H16         6.2761   -1.7926    0.6218 H         1 <0>         0.0455
     55 H17         6.5873   -0.0331    4.9927 H         1 <0>         0.0776
     56 H18         5.6867   -1.5594    5.1590 H         1 <0>         0.0410
     57 H19         7.1027   -3.9077    4.9367 H         1 <0>         0.1373
     58 H20         9.6687   -4.4289    5.0488 H         1 <0>         0.1619
     59 H21         9.2322   -0.2133    4.5449 H         1 <0>         0.1528
     60 H22        11.6006   -3.4357    3.1509 H         1 <0>         0.1696
     61 H23        13.7376   -0.5251    6.5201 H         1 <0>         0.1713
     62 H24        14.2499   -5.0066    1.6921 H         1 <0>         0.1056
     63 H25        12.6592   -4.6075    2.3839 H         1 <0>         0.0952
@<TRIPOS>BOND
     1    1    6 ar
     2    1    2 ar
     3    1   40 1
     4    2    3 ar
     5    2   41 1
     6    3    4 ar
     7    3   42 1
     8    4    5 ar
     9    4    7 1
    10    5    6 ar
    11    5   43 1
    12    6   44 1
    13    7    8 1
    14    7   45 1
    15    7   46 1
    16    8   13 1
    17    8    9 1
    18    9   10 1
    19    9   47 1
    20    9   48 1
    21   10   11 1
    22   10   49 1
    23   10   50 1
    24   11   12 1
    25   11   14 1
    26   12   13 1
    27   12   51 1
    28   12   52 1
    29   13   53 1
    30   13   54 1
    31   14   15 1
    32   14   55 1
    33   14   56 1
    34   15   19 2
    35   15   16 1
    36   16   17 2
    37   16   57 1
    38   17   18 1
    39   17   58 1
    40   18   19 1
    41   18   20 1
    42   19   59 1
    43   20   25 ar
    44   20   21 ar
    45   21   22 ar
    46   21   60 1
    47   22   35 1
    48   22   23 ar
    49   23   24 ar
    50   23   29 1
    51   24   25 ar
    52   24   61 1
    53   25   26 1
    54   26   27 2
    55   26   28 1
    56   29   30 1
    57   29   31 am
    58   31   32 2
    59   31   33 1
    60   33   34 2
    61   33   35 am
    62   35   36 1
    63   36   37 1
    64   36   62 1
    65   36   63 1
    66   37   38 2
    67   37   39 1
@<TRIPOS>MOLECULE
CHEMBL63861__2
   64    68     0     0     0
SMALL
USER_CHARGES

@<TRIPOS>ATOM
      1 C1          0.1775    0.9852   -0.7098 C.ar      1 <0>        -0.1128
      2 C2          1.3811    1.6617   -0.7778 C.ar      1 <0>        -0.1187
      3 C3          2.5716    0.9658   -0.6809 C.ar      1 <0>        -0.1183
      4 C4          2.5585   -0.4065   -0.5154 C.ar      1 <0>        -0.0909
      5 C5          1.3549   -1.0829   -0.4465 C.ar      1 <0>        -0.0952
      6 C6          0.1644   -0.3872   -0.5448 C.ar      1 <0>        -0.1179
      7 C7          3.8563   -1.1652   -0.4107 C.3       1 <0>         0.0953
      8 N1          4.2641   -1.2459    0.9983 N.3       1 <0>        -0.5329
      9 C8          4.5991    0.0841    1.5266 C.3       1 <0>         0.0202
     10 C9          4.9601   -0.0353    3.0088 C.3       1 <0>        -0.0004
     11 N2          6.1034   -0.9445    3.1628 N.4       1 <0>        -0.3871
     12 C10         5.7454   -2.2748    2.6534 C.3       1 <0>        -0.0001
     13 C11         5.3909   -2.1741    1.1682 C.3       1 <0>         0.0248
     14 C12         6.4611   -1.0446    4.5841 C.3       1 <0>         0.0857
     15 C13         7.7078   -1.8784    4.7308 C.2       1 <0>        -0.2398
     16 C14         7.7606   -3.2765    4.9002 C.2       1 <0>        -0.1708
     17 C15         9.0605   -3.6245    4.9902 C.2       1 <0>         0.0165
     18 N3          9.8140   -2.4908    4.8825 N.pl3     1 <0>        -0.3952
     19 C16         8.9775   -1.4240    4.7182 C.2       1 <0>         0.0905
     20 C17        11.2146   -2.4323    4.9281 C.ar      1 <0>         0.1833
     21 C18        11.9671   -3.1550    4.0162 C.ar      1 <0>        -0.1150
     22 C19        13.3545   -3.0974    4.0603 C.ar      1 <0>         0.2285
     23 C20        13.9859   -2.3100    5.0259 C.ar      1 <0>         0.1248
     24 C21        13.2225   -1.5886    5.9373 C.ar      1 <0>        -0.0410
     25 C22        11.8456   -1.6450    5.8845 C.ar      1 <0>        -0.0603
     26 N4         11.0374   -0.8700    6.8527 N.pl3     1 <0>         0.0422
     27 O1         11.5772   -0.0937    7.6062 O.2       1 <0>        -0.1526
     28 O2          9.8375   -1.0132    6.8900 O.3       1 <0>        -0.1539
     29 N5         15.3757   -2.2411    5.0848 N.am      1 <0>        -0.6321
     30 H1         15.8051   -1.6918    5.7592 H         1 <0>         0.4273
     31 C23        16.1251   -2.9370    4.2061 C.2       1 <0>         0.5175
     32 O3         17.3376   -2.8806    4.2541 O.2       1 <0>        -0.4514
     33 C24        15.4506   -3.7771    3.1750 C.2       1 <0>         0.5088
     34 O4         16.1081   -4.4117    2.3748 O.2       1 <0>        -0.4337
     35 N6         14.1035   -3.8262    3.1407 N.am      1 <0>        -0.4907
     36 C25        13.4271   -4.6479    2.1340 C.3       1 <0>         0.0156
     37 C26        13.1776   -3.8233    0.8976 C.2       1 <0>         0.4869
     38 O5         13.5319   -2.6573    0.8607 O.co2     1 <0>        -0.6765
     39 O6         12.6214   -4.3222   -0.0659 O.co2     1 <0>        -0.6758
     40 H2         -0.7526    1.5294   -0.7810 H         1 <0>         0.1241
     41 H3          1.3913    2.7339   -0.9071 H         1 <0>         0.1240
     42 H4          3.5119    1.4943   -0.7347 H         1 <0>         0.1183
     43 H5          1.3447   -2.1552   -0.3176 H         1 <0>         0.1239
     44 H6         -0.7759   -0.9158   -0.4914 H         1 <0>         0.1249
     45 H7          3.7222   -2.1712   -0.8083 H         1 <0>         0.0960
     46 H8          4.6266   -0.6482   -0.9829 H         1 <0>         0.0555
     47 H9          5.4482    0.4904    0.9770 H         1 <0>         0.0593
     48 H10         3.7413    0.7470    1.4134 H         1 <0>         0.1226
     49 H11         5.2227    0.9480    3.3992 H         1 <0>         0.1327
     50 H12         4.1062   -0.4288    3.5602 H         1 <0>         0.1356
     51 H13         6.5902   -2.9518    2.7802 H         1 <0>         0.1410
     52 H14         4.8875   -2.6569    3.2066 H         1 <0>         0.1337
     53 H15         5.1108   -3.1586    0.7935 H         1 <0>         0.1217
     54 H16         6.2531   -1.8049    0.6127 H         1 <0>         0.0616
     55 H17         6.6419   -0.0471    4.9844 H         1 <0>         0.1307
     56 H18         5.6439   -1.5135    5.1322 H         1 <0>         0.1336
     57 H19         6.9150   -3.9465    4.9493 H         1 <0>         0.1506
     58 H20         9.4399   -4.6267    5.1244 H         1 <0>         0.1741
     59 H21         9.2804   -0.3940    4.6009 H         1 <0>         0.1631
     60 H22        11.4751   -3.7631    3.2715 H         1 <0>         0.1707
     61 H23        13.7088   -0.9795    6.6849 H         1 <0>         0.1758
     62 H24        14.0551   -5.5020    1.8805 H         1 <0>         0.1089
     63 H25        12.4764   -5.0016    2.5328 H         1 <0>         0.0940
     64 H26         6.8903   -0.5860    2.6429 H         1 <0>         0.4188
@<TRIPOS>BOND
     1    1    6 ar
     2    1    2 ar
     3    1   40 1
     4    2    3 ar
     5    2   41 1
     6    3    4 ar
     7    3   42 1
     8    4    5 ar
     9    4    7 1
    10    5    6 ar
    11    5   43 1
    12    6   44 1
    13    7    8 1
    14    7   45 1
    15    7   46 1
    16    8   13 1
    17    8    9 1
    18    9   10 1
    19    9   47 1
    20    9   48 1
    21   10   11 1
    22   10   49 1
    23   10   50 1
    24   11   12 1
    25   11   14 1
    26   11   64 1
    27   12   13 1
    28   12   51 1
    29   12   52 1
    30   13   53 1
    31   13   54 1
    32   14   15 1
    33   14   55 1
    34   14   56 1
    35   15   19 2
    36   15   16 1
    37   16   17 2
    38   16   57 1
    39   17   18 1
    40   17   58 1
    41   18   19 1
    42   18   20 1
    43   19   59 1
    44   20   25 ar
    45   20   21 ar
    46   21   22 ar
    47   21   60 1
    48   22   35 1
    49   22   23 ar
    50   23   24 ar
    51   23   29 1
    52   24   25 ar
    53   24   61 1
    54   25   26 1
    55   26   27 2
    56   26   28 1
    57   29   30 1
    58   29   31 am
    59   31   32 2
    60   31   33 1
    61   33   34 2
    62   33   35 am
    63   35   36 1
    64   36   37 1
    65   36   62 1
    66   36   63 1
    67   37   38 2
    68   37   39 1
@<TRIPOS>MOLECULE
CHEMBL220822
   38    39     0     0     0
SMALL
USER_CHARGES

@<TRIPOS>ATOM
      1 C1         -1.3698    0.3954   -4.5755 C.3       1 <0>        -0.0844
      2 C2         -1.2215   -0.8235   -3.7017 C.2       1 <0>        -0.2364
      3 C3         -2.1586   -1.7955   -3.7188 C.2       1 <0>         0.1108
      4 N1         -2.0084   -2.8956   -2.9191 N.am      1 <0>        -0.5538
      5 C4         -0.9361   -3.0176   -2.1157 C.2       1 <0>         0.6544
      6 O1         -0.8227   -4.0033   -1.4129 O.2       1 <0>        -0.4391
      7 N2          0.0131   -2.0640   -2.0793 N.am      1 <0>        -0.5411
      8 C5         -0.0950   -0.9674   -2.8564 C.2       1 <0>         0.5313
      9 O2          0.7659   -0.1066   -2.8279 O.2       1 <0>        -0.4812
     10 C6          1.1712   -2.2207   -1.1957 C.3       1 <0>         0.1720
     11 C7          2.2888   -2.8966   -1.9475 C.2       1 <0>        -0.1515
     12 C8          3.2985   -2.1873   -2.5473 C.2       1 <0>        -0.0688
     13 C9          4.2758   -2.8613   -3.2098 C.2       1 <0>        -0.2670
     14 S1          3.8518   -4.4777   -3.0373 S.3       1 <0>         0.2542
     15 C10         2.3657   -4.2792   -2.0727 C.2       1 <0>        -0.1127
     16 C11         1.4907   -5.2713   -1.5669 C.2       1 <0>         0.5467
     17 O3          0.9915   -5.1391   -0.4559 O.co2     1 <0>        -0.6223
     18 O4          1.2329   -6.2618   -2.2404 O.co2     1 <0>        -0.6738
     19 Br1         5.7707   -2.1432   -4.1184 Br        1 <0>         0.0329
     20 Br2         3.3299   -0.2989   -2.4544 Br        1 <0>        -0.0078
     21 C12        -3.0250   -3.9503   -2.9375 C.3       1 <0>         0.1130
     22 C13        -2.6635   -4.9886   -4.0015 C.3       1 <0>        -0.0678
     23 H1         -1.7355   -5.4874   -3.7219 H         1 <0>         0.1521
     24 C14        -3.7694   -6.0069   -4.1059 C.2       1 <0>         0.4975
     25 O5         -4.6904   -5.8289   -4.8848 O.co2     1 <0>        -0.6741
     26 O6         -3.7432   -7.0088   -3.4116 O.co2     1 <0>        -0.6171
     27 N3         -2.4889   -4.3206   -5.2982 N.4       1 <0>        -0.6133
     28 H2         -0.5165    1.0566   -4.4245 H         1 <0>         0.0827
     29 H3         -1.4123    0.0901   -5.6209 H         1 <0>         0.0661
     30 H4         -2.2877    0.9212   -4.3128 H         1 <0>         0.0688
     31 H5         -3.0227   -1.7049   -4.3603 H         1 <0>         0.1690
     32 H6          1.5035   -1.2402   -0.8549 H         1 <0>         0.1044
     33 H7          0.8921   -2.8290   -0.3354 H         1 <0>         0.1306
     34 H8         -3.0674   -4.4311   -1.9602 H         1 <0>         0.1411
     35 H9         -3.9965   -3.5144   -3.1705 H         1 <0>         0.1140
     36 H10        -1.7484   -3.6388   -5.2283 H         1 <0>         0.4099
     37 H11        -2.2505   -5.0053   -5.9999 H         1 <0>         0.4339
     38 H12        -3.3479   -3.8589   -5.5570 H         1 <0>         0.4268
@<TRIPOS>BOND
     1    1    2 1
     2    1   28 1
     3    1   29 1
     4    1   30 1
     5    2    8 1
     6    2    3 2
     7    3    4 1
     8    3   31 1
     9    4    5 am
    10    4   21 1
    11    5    6 2
    12    5    7 am
    13    7    8 am
    14    7   10 1
    15    8    9 2
    16   10   11 1
    17   10   32 1
    18   10   33 1
    19   11   15 2
    20   11   12 1
    21   12   13 2
    22   12   20 1
    23   13   14 1
    24   13   19 1
    25   14   15 1
    26   15   16 1
    27   16   17 2
    28   16   18 1
    29   21   22 1
    30   21   34 1
    31   21   35 1
    32   22   23 1
    33   22   24 1
    34   22   27 1
    35   24   25 2
    36   24   26 1
    37   27   36 1
    38   27   37 1
    39   27   38 1
@<TRIPOS>MOLECULE
CHEMBL220509
   38    39     0     0     0
SMALL
USER_CHARGES

@<TRIPOS>ATOM
      1 C1          0.0137    1.5403   -0.1472 C.3       1 <0>        -0.0902
      2 C2          0.0319    0.0352   -0.0722 C.2       1 <0>        -0.2235
      3 C3         -1.1230   -0.6598    0.0073 C.2       1 <0>         0.1051
      4 N1         -1.0885   -2.0260    0.0748 N.am      1 <0>        -0.5540
      5 C4          0.0854   -2.6832    0.0630 C.2       1 <0>         0.6831
      6 O1          0.0932   -3.8975    0.1243 O.2       1 <0>        -0.5050
      7 N2          1.2514   -2.0154   -0.0159 N.am      1 <0>        -0.5426
      8 C5          1.2598   -0.6691   -0.0900 C.2       1 <0>         0.5406
      9 O2          2.3141   -0.0644   -0.1666 O.2       1 <0>        -0.4900
     10 C6          2.5162   -2.7546   -0.0270 C.3       1 <0>         0.1988
     11 C7          2.8683   -3.1266   -1.4443 C.2       1 <0>        -0.1830
     12 C8          2.1857   -2.7411   -2.6065 C.2       1 <0>        -0.2130
     13 C9          2.8374   -3.2933   -3.6549 C.2       1 <0>        -0.0629
     14 O3          3.8812   -3.9956   -3.1989 O.3       1 <0>        -0.1469
     15 C10         3.9281   -3.9075   -1.8526 C.2       1 <0>        -0.0216
     16 C11         4.9234   -4.5310   -0.9831 C.2       1 <0>         0.5563
     17 O4          4.7976   -4.4701    0.2339 O.co2     1 <0>        -0.6544
     18 O5          5.8835   -5.1144   -1.4711 O.co2     1 <0>        -0.6647
     19 C12        -2.3415   -2.7802    0.1610 C.3       1 <0>         0.1107
     20 C13        -2.8331   -3.1152   -1.2486 C.3       1 <0>        -0.0672
     21 H1         -2.1240   -3.7883   -1.7303 H         1 <0>         0.1447
     22 C14        -4.1818   -3.7825   -1.1648 C.2       1 <0>         0.4981
     23 O6         -5.1783   -3.1933   -1.5474 O.co2     1 <0>        -0.6696
     24 O7         -4.2763   -4.9115   -0.7145 O.co2     1 <0>        -0.6214
     25 N3         -2.9463   -1.8792   -2.0343 N.4       1 <0>        -0.6133
     26 H2          1.0359    1.9132   -0.2103 H         1 <0>         0.0851
     27 H3         -0.5425    1.8533   -1.0307 H         1 <0>         0.0711
     28 H4         -0.4655    1.9428    0.7453 H         1 <0>         0.0740
     29 H5         -2.0696   -0.1398    0.0180 H         1 <0>         0.1747
     30 H6          3.3056   -2.1303    0.3916 H         1 <0>         0.1129
     31 H7          2.4132   -3.6599    0.5713 H         1 <0>         0.1177
     32 H8          1.3039   -2.1195   -2.6554 H         1 <0>         0.1217
     33 H9          2.5601   -3.1850   -4.6931 H         1 <0>         0.1919
     34 H10        -2.1726   -3.7031    0.7158 H         1 <0>         0.1449
     35 H11        -3.0923   -2.1797    0.6746 H         1 <0>         0.1162
     36 H12        -3.2706   -2.1001   -2.9639 H         1 <0>         0.4363
     37 H13        -3.6028   -1.2561   -1.5884 H         1 <0>         0.4290
     38 H14        -2.0434   -1.4324   -2.0904 H         1 <0>         0.4104
@<TRIPOS>BOND
     1    1    2 1
     2    1   26 1
     3    1   27 1
     4    1   28 1
     5    2    8 1
     6    2    3 2
     7    3    4 1
     8    3   29 1
     9    4    5 am
    10    4   19 1
    11    5    6 2
    12    5    7 am
    13    7    8 am
    14    7   10 1
    15    8    9 2
    16   10   11 1
    17   10   30 1
    18   10   31 1
    19   11   15 2
    20   11   12 1
    21   12   13 2
    22   12   32 1
    23   13   14 1
    24   13   33 1
    25   14   15 1
    26   15   16 1
    27   16   17 2
    28   16   18 1
    29   19   20 1
    30   19   34 1
    31   19   35 1
    32   20   21 1
    33   20   22 1
    34   20   25 1
    35   22   23 2
    36   22   24 1
    37   25   36 1
    38   25   37 1
    39   25   38 1
@<TRIPOS>MOLECULE
CHEMBL275040
   29    29     0     0     0
SMALL
USER_CHARGES

@<TRIPOS>ATOM
      1 C1          1.0799   -0.3943   -0.7951 C.3       1 <0>        -0.1264
      2 C2         -0.0539    0.0466    0.0944 C.2       1 <0>        -0.0851
      3 C3          0.1239    1.0269    0.9449 C.2       1 <0>        -0.2152
      4 C4         -1.3923   -0.6404    0.0054 C.3       1 <0>        -0.0829
      5 H1         -1.2738   -1.7222    0.0665 H         1 <0>         0.1010
      6 C5         -2.3455   -0.1298    1.1150 C.3       1 <0>        -0.0057
      7 N1         -3.6945   -0.3983    0.5543 N.4       1 <0>        -0.4952
      8 C6         -3.6039   -0.0757   -0.8862 C.3       1 <0>        -0.0344
      9 H2         -3.9248    0.9517   -1.0576 H         1 <0>         0.1243
     10 C7         -2.1258   -0.2430   -1.2962 C.3       1 <0>        -0.0443
     11 H3         -2.0240   -1.0302   -2.0432 H         1 <0>         0.1083
     12 C8         -1.5723    1.0774   -1.8356 C.3       1 <0>        -0.1808
     13 C9         -2.1700    1.3564   -3.1906 C.2       1 <0>         0.4629
     14 O1         -2.9649    0.5718   -3.6795 O.co2     1 <0>        -0.6259
     15 O2         -1.8586    2.3667   -3.7980 O.co2     1 <0>        -0.7225
     16 C10        -4.4676   -1.0222   -1.6795 C.2       1 <0>         0.4844
     17 O3         -5.1257   -1.8732   -1.1058 O.co2     1 <0>        -0.7147
     18 O4         -4.5083   -0.9368   -2.8951 O.co2     1 <0>        -0.5649
     19 H4          1.9427    0.2513   -0.6309 H         1 <0>         0.0649
     20 H5          1.3469   -1.4245   -0.5597 H         1 <0>         0.0674
     21 H6          0.7702   -0.3284   -1.8381 H         1 <0>         0.0792
     22 H7         -0.6562    1.2804    1.6475 H         1 <0>         0.0960
     23 H8          1.0505    1.5817    0.9435 H         1 <0>         0.1029
     24 H9         -2.1947   -0.6883    2.0388 H         1 <0>         0.1211
     25 H10        -2.2040    0.9380    1.2824 H         1 <0>         0.1276
     26 H11        -3.9359   -1.3700    0.6788 H         1 <0>         0.4255
     27 H12        -1.8299    1.8859   -1.1515 H         1 <0>         0.0481
     28 H13        -0.4881    1.0078   -1.9241 H         1 <0>         0.0711
     29 H14        -4.3805    0.1919    1.0005 H         1 <0>         0.4136
@<TRIPOS>BOND
     1    1    2 1
     2    1   19 1
     3    1   20 1
     4    1   21 1
     5    2    3 2
     6    2    4 1
     7    3   22 1
     8    3   23 1
     9    4    5 1
    10    4   10 1
    11    4    6 1
    12    6    7 1
    13    6   24 1
    14    6   25 1
    15    7    8 1
    16    7   26 1
    17    7   29 1
    18    8    9 1
    19    8   10 1
    20    8   16 1
    21   10   11 1
    22   10   12 1
    23   12   13 1
    24   12   27 1
    25   12   28 1
    26   13   14 2
    27   13   15 1
    28   16   17 2
    29   16   18 1
@<TRIPOS>MOLECULE
CHEMBL59284
   39    39     0     0     0
SMALL
USER_CHARGES

@<TRIPOS>ATOM
      1 C1          1.3152   -2.2539    7.5933 C.3       1 <0>         0.0278
      2 O1          0.9663   -2.9442    6.3917 O.3       1 <0>        -0.3123
      3 C2          0.0407   -3.9329    6.4951 C.ar      1 <0>         0.1254
      4 C3         -0.5251   -4.2300    7.7244 C.ar      1 <0>        -0.2095
      5 C4         -1.4668   -5.2361    7.8285 C.ar      1 <0>        -0.0916
      6 C5         -1.8514   -5.9527    6.7084 C.ar      1 <0>        -0.1504
      7 C6         -1.2975   -5.6685    5.4773 C.ar      1 <0>        -0.0813
      8 C7         -0.3495   -4.6518    5.3590 C.ar      1 <0>        -0.0665
      9 C8          0.2432   -4.3388    4.0425 C.2       1 <0>        -0.1449
     10 C9         -0.1290   -5.0219    2.9685 C.2       1 <0>        -0.1065
     11 C10         0.4756   -4.7027    1.6255 C.3       1 <0>        -0.0717
     12 C11         1.0809   -5.9725    1.0238 C.3       1 <0>        -0.1642
     13 H1          1.7911   -6.4056    1.7283 H         1 <0>         0.0505
     14 C12         1.8029   -5.6253   -0.2796 C.3       1 <0>        -0.1013
     15 C13         2.5293   -6.8647   -0.8061 C.3       1 <0>        -0.0446
     16 H2          1.8218   -7.6887   -0.8984 H         1 <0>         0.1365
     17 C14         3.1262   -6.5615   -2.1562 C.2       1 <0>         0.4956
     18 O2          4.3355   -6.4706   -2.2816 O.co2     1 <0>        -0.6901
     19 O3          2.3997   -6.4070   -3.1231 O.co2     1 <0>        -0.6372
     20 N1          3.5985   -7.2397    0.1289 N.4       1 <0>        -0.6095
     21 C15        -0.0158   -6.9666    0.7411 C.2       1 <0>         0.4965
     22 O4          0.0121   -8.0693    1.2605 O.co2     1 <0>        -0.7037
     23 O5         -0.9312   -6.6682   -0.0069 O.co2     1 <0>        -0.6765
     24 H3          2.0620   -1.4917    7.3707 H         1 <0>         0.0981
     25 H4          0.4268   -1.7807    8.0115 H         1 <0>         0.0533
     26 H5          1.7230   -2.9625    8.3141 H         1 <0>         0.0531
     27 H6         -0.2297   -3.6749    8.6024 H         1 <0>         0.1248
     28 H7         -1.9047   -5.4648    8.7889 H         1 <0>         0.1213
     29 H8         -2.5877   -6.7376    6.7987 H         1 <0>         0.1241
     30 H9         -1.6001   -6.2297    4.6057 H         1 <0>         0.1361
     31 H10         0.9795   -3.5537    3.9547 H         1 <0>         0.1180
     32 H11        -0.8654   -5.8071    3.0563 H         1 <0>         0.1157
     33 H12        -0.2982   -4.3188    0.9607 H         1 <0>         0.0863
     34 H13         1.2555   -3.9510    1.7476 H         1 <0>         0.0577
     35 H14         1.0762   -5.2886   -1.0190 H         1 <0>         0.1110
     36 H15         2.5265   -4.8316   -0.0938 H         1 <0>         0.0649
     37 H16         4.2534   -6.4769    0.2143 H         1 <0>         0.4227
     38 H17         3.1988   -7.4427    1.0329 H         1 <0>         0.4181
     39 H18         4.0775   -8.0570   -0.2183 H         1 <0>         0.4246
@<TRIPOS>BOND
     1    1    2 1
     2    1   24 1
     3    1   25 1
     4    1   26 1
     5    2    3 1
     6    3    8 ar
     7    3    4 ar
     8    4    5 ar
     9    4   27 1
    10    5    6 ar
    11    5   28 1
    12    6    7 ar
    13    6   29 1
    14    7    8 ar
    15    7   30 1
    16    8    9 1
    17    9   10 2
    18    9   31 1
    19   10   11 1
    20   10   32 1
    21   11   12 1
    22   11   33 1
    23   11   34 1
    24   12   13 1
    25   12   14 1
    26   12   21 1
    27   14   15 1
    28   14   35 1
    29   14   36 1
    30   15   16 1
    31   15   17 1
    32   15   20 1
    33   17   18 2
    34   17   19 1
    35   20   37 1
    36   20   38 1
    37   20   39 1
    38   21   22 2
    39   21   23 1
@<TRIPOS>MOLECULE
CHEMBL62086
   26    25     0     0     0
SMALL
NO_CHARGES

@<TRIPOS>ATOM
      1 C1         -0.0118    1.4729   -0.2617 C.3       1 <0>        -0.0491
      2 C2          0.0080    0.0021   -0.2045 C.1       1 <0>        -0.1381
      3 C3          0.0238   -1.1709   -0.1589 C.1       1 <0>        -0.2049
      4 C4          0.0436   -2.6416   -0.1018 C.3       1 <0>         0.0030
      5 C5         -1.3919   -3.1708   -0.0851 C.3       1 <0>        -0.0710
      6 H1         -1.9390   -2.7111    0.7380 H         1 <0>         0.1159
      7 C6         -1.3736   -4.6894    0.0998 C.3       1 <0>        -0.1315
      8 C7         -2.8015   -5.1940    0.3173 C.3       1 <0>        -0.0419
      9 H2         -3.4258   -4.8912   -0.5233 H         1 <0>         0.1837
     10 C8         -2.7927   -6.6974    0.4206 C.2       1 <0>         0.4899
     11 O1         -2.6557   -7.2330    1.5073 O.co2     1 <0>        -0.6210
     12 O2         -2.9227   -7.3782   -0.5825 O.co2     1 <0>        -0.5715
     13 N1         -3.3396   -4.6210    1.5583 N.4       1 <0>        -0.6213
     14 C9         -2.0675   -2.8315   -1.3888 C.2       1 <0>         0.4765
     15 O3         -3.0057   -3.5035   -1.7821 O.co2     1 <0>        -0.4277
     16 O4         -1.6758   -1.8851   -2.0502 O.co2     1 <0>        -0.4326
     17 H3          1.0109    1.8498   -0.2736 H         1 <0>         0.0856
     18 H4         -0.5281    1.7944   -1.1663 H         1 <0>         0.0875
     19 H5         -0.5329    1.8635    0.6123 H         1 <0>         0.0825
     20 H6          0.5647   -3.0322   -0.9758 H         1 <0>         0.1115
     21 H7          0.5599   -2.9632    0.8028 H         1 <0>         0.1232
     22 H8         -0.9540   -5.1587   -0.7901 H         1 <0>         0.1321
     23 H9         -0.7628   -4.9426    0.9663 H         1 <0>         0.1300
     24 H10        -4.2813   -4.9538    1.7018 H         1 <0>         0.4387
     25 H11        -2.7616   -4.9013    2.3364 H         1 <0>         0.4344
     26 H12        -3.3454   -3.6144    1.4891 H         1 <0>         0.4164
@<TRIPOS>BOND
     1    1    2 1
     2    1   17 1
     3    1   18 1
     4    1   19 1
     5    2    3 3
     6    3    4 1
     7    4    5 1
     8    4   20 1
     9    4   21 1
    10    5    6 1
    11    5    7 1
    12    5   14 1
    13    7    8 1
    14    7   22 1
    15    7   23 1
    16    8    9 1
    17    8   10 1
    18    8   13 1
    19   10   11 2
    20   10   12 1
    21   13   24 1
    22   13   25 1
    23   13   26 1
    24   14   15 2
    25   14   16 1
@<TRIPOS>MOLECULE
CHEMBL62472
   21    22     0     0     0
SMALL
USER_CHARGES

@<TRIPOS>ATOM
      1 C1         -0.0163    1.3521    0.0095 C.2       1 <0>        -0.0517
      2 C2          1.2598    2.0689    0.0011 C.ar      1 <0>        -0.0893
      3 C3          1.3039    3.4673    0.0087 C.ar      1 <0>        -0.0454
      4 C4          2.5112    4.1072    0.0010 C.ar      1 <0>        -0.0682
      5 C5          3.6966    3.3799   -0.0147 C.ar      1 <0>        -0.0011
      6 C6          3.6754    2.0008   -0.0229 C.ar      1 <0>        -0.1504
      7 C7          2.4576    1.3293   -0.0143 C.ar      1 <0>         0.1961
      8 N1          2.4077   -0.0488   -0.0208 N.am      1 <0>        -0.6443
      9 C8          1.2304   -0.6982   -0.0125 C.2       1 <0>         0.5487
     10 C9          0.0021   -0.0041    0.0020 C.2       1 <0>        -0.6533
     11 P1         -1.5584   -0.9290    0.0126 P.3       1 <0>         2.2157
     12 O1         -1.6184   -1.8374    1.2875 O.2       1 <0>        -1.1625
     13 O2         -2.7606    0.0754    0.0299 O.3       1 <0>        -1.1693
     14 O3         -1.6438   -1.8237   -1.2707 O.3       1 <0>        -1.1626
     15 O4          1.2240   -1.9170   -0.0190 O.2       1 <0>        -0.4872
     16 Cl1         5.2179    4.2161   -0.0249 Cl        1 <0>        -0.0625
     17 Cl2         2.5659    5.8424    0.0105 Cl        1 <0>        -0.0665
     18 H1         -0.9520    1.8912    0.0257 H         1 <0>         0.1562
     19 H2          0.3875    4.0387    0.0203 H         1 <0>         0.1523
     20 H3          4.6010    1.4446   -0.0358 H         1 <0>         0.1441
     21 H4          3.2338   -0.5570   -0.0317 H         1 <0>         0.4011
@<TRIPOS>BOND
     1    1   10 2
     2    1    2 1
     3    1   18 1
     4    2    7 ar
     5    2    3 ar
     6    3    4 ar
     7    3   19 1
     8    4    5 ar
     9    4   17 1
    10    5    6 ar
    11    5   16 1
    12    6    7 ar
    13    6   20 1
    14    7    8 1
    15    8    9 am
    16    8   21 1
    17    9   10 1
    18    9   15 2
    19   10   11 1
    20   11   12 2
    21   11   13 1
    22   11   14 1
@<TRIPOS>MOLECULE
CHEMBL62472__1
   22    23     0     0     0
SMALL
USER_CHARGES

@<TRIPOS>ATOM
      1 C1         -0.0163    1.3521    0.0095 C.2       1 <0>         0.0306
      2 C2          1.2598    2.0689    0.0011 C.ar      1 <0>        -0.1216
      3 C3          1.3039    3.4673    0.0087 C.ar      1 <0>        -0.0287
      4 C4          2.5112    4.1072    0.0010 C.ar      1 <0>        -0.0698
      5 C5          3.6966    3.3799   -0.0147 C.ar      1 <0>         0.0173
      6 C6          3.6754    2.0008   -0.0229 C.ar      1 <0>        -0.1501
      7 C7          2.4576    1.3293   -0.0143 C.ar      1 <0>         0.2089
      8 N1          2.4077   -0.0488   -0.0208 N.am      1 <0>        -0.6354
      9 C8          1.2304   -0.6982   -0.0125 C.2       1 <0>         0.5580
     10 C9          0.0021   -0.0041    0.0020 C.2       1 <0>        -0.7400
     11 P1         -1.5584   -0.9290    0.0126 P.3       1 <0>         2.3138
     12 O1         -1.6176   -1.8249    1.2699 O.2       1 <0>        -1.0887
     13 O2         -2.7440    0.0615    0.0297 O.3       1 <0>        -1.0956
     14 O3         -1.6462   -1.8484   -1.3062 O.3       1 <0>        -0.9010
     15 O4          1.2240   -1.9170   -0.0190 O.2       1 <0>        -0.5095
     16 Cl1         5.2179    4.2161   -0.0249 Cl        1 <0>        -0.0418
     17 Cl2         2.5659    5.8424    0.0105 Cl        1 <0>        -0.0481
     18 H1         -0.9520    1.8912    0.0257 H         1 <0>         0.1664
     19 H2          0.3875    4.0387    0.0203 H         1 <0>         0.1586
     20 H3          4.6010    1.4446   -0.0358 H         1 <0>         0.1518
     21 H4         -2.4566   -2.3724   -1.3671 H         1 <0>         0.4125
     22 H5          3.2338   -0.5570   -0.0317 H         1 <0>         0.4124
@<TRIPOS>BOND
     1    1   10 2
     2    1    2 1
     3    1   18 1
     4    2    7 ar
     5    2    3 ar
     6    3    4 ar
     7    3   19 1
     8    4    5 ar
     9    4   17 1
    10    5    6 ar
    11    5   16 1
    12    6    7 ar
    13    6   20 1
    14    7    8 1
    15    8    9 am
    16    8   22 1
    17    9   10 1
    18    9   15 2
    19   10   11 1
    20   11   12 2
    21   11   13 1
    22   11   14 1
    23   14   21 1
@<TRIPOS>MOLECULE
CHEMBL293118
   35    35     0     0     0
SMALL
USER_CHARGES

@<TRIPOS>ATOM
      1 C1         -0.0168    1.3910    0.0097 C.ar      1 <0>        -0.1049
      2 C2          1.1699    2.0949    0.0021 C.ar      1 <0>        -0.0965
      3 C3          2.3782    1.4200   -0.0135 C.ar      1 <0>        -0.0443
      4 C4          2.4039    0.0343   -0.0212 C.ar      1 <0>        -0.0217
      5 C5          1.2228   -0.6801   -0.0137 C.ar      1 <0>        -0.1021
      6 C6          0.0021   -0.0041    0.0020 C.ar      1 <0>        -0.0153
      7 C7         -1.2662   -0.7631    0.0100 C.2       1 <0>        -0.1677
      8 C8         -1.2454   -2.0887    0.0027 C.2       1 <0>        -0.0823
      9 C9         -2.5384   -2.8626    0.0109 C.3       1 <0>        -0.0762
     10 C10        -2.5624   -3.8281   -1.1757 C.3       1 <0>        -0.1654
     11 H1         -2.3937   -3.2736   -2.0988 H         1 <0>         0.0520
     12 C11        -3.9238   -4.5233   -1.2401 C.3       1 <0>        -0.1018
     13 C12        -3.9929   -5.3941   -2.4962 C.3       1 <0>        -0.0438
     14 H2         -3.1507   -6.0860   -2.5055 H         1 <0>         0.1360
     15 C13        -5.2830   -6.1731   -2.4971 C.2       1 <0>         0.4940
     16 O1         -6.2797   -5.7011   -3.0170 O.co2     1 <0>        -0.6846
     17 O2         -5.3299   -7.2753   -1.9780 O.co2     1 <0>        -0.6389
     18 N1         -3.9368   -4.5384   -3.6889 N.4       1 <0>        -0.6112
     19 C14        -1.4785   -4.8610   -1.0049 C.2       1 <0>         0.4944
     20 O3         -1.4819   -5.5928   -0.0297 O.co2     1 <0>        -0.6751
     21 O4         -0.5981   -4.9649   -1.8420 O.co2     1 <0>        -0.7009
     22 Cl1         3.9238   -0.8042   -0.0408 Cl        1 <0>        -0.0491
     23 Cl2         3.8672    2.3126   -0.0241 Cl        1 <0>        -0.0579
     24 H3         -0.9588    1.9191    0.0260 H         1 <0>         0.1384
     25 H4          1.1559    3.1748    0.0081 H         1 <0>         0.1406
     26 H5          1.2434   -1.7599   -0.0204 H         1 <0>         0.1485
     27 H6         -2.2098   -0.2379    0.0219 H         1 <0>         0.1229
     28 H7         -0.3017   -2.6139   -0.0091 H         1 <0>         0.1187
     29 H8         -2.6182   -3.4269    0.9401 H         1 <0>         0.0903
     30 H9         -3.3767   -2.1703   -0.0669 H         1 <0>         0.0615
     31 H10        -4.0546   -5.1486   -0.3569 H         1 <0>         0.1076
     32 H11        -4.7137   -3.7730   -1.2742 H         1 <0>         0.0687
     33 H12        -3.9824   -5.1126   -4.5173 H         1 <0>         0.4234
     34 H13        -4.7164   -3.8979   -3.6803 H         1 <0>         0.4244
     35 H14        -3.0730   -4.0168   -3.6883 H         1 <0>         0.4187
@<TRIPOS>BOND
     1    1    6 ar
     2    1    2 ar
     3    1   24 1
     4    2    3 ar
     5    2   25 1
     6    3    4 ar
     7    3   23 1
     8    4    5 ar
     9    4   22 1
    10    5    6 ar
    11    5   26 1
    12    6    7 1
    13    7    8 2
    14    7   27 1
    15    8    9 1
    16    8   28 1
    17    9   10 1
    18    9   29 1
    19    9   30 1
    20   10   11 1
    21   10   12 1
    22   10   19 1
    23   12   13 1
    24   12   31 1
    25   12   32 1
    26   13   14 1
    27   13   15 1
    28   13   18 1
    29   15   16 2
    30   15   17 1
    31   18   33 1
    32   18   34 1
    33   18   35 1
    34   19   20 2
    35   19   21 1
@<TRIPOS>MOLECULE
CHEMBL373429
   48    50     0     0     0
SMALL
USER_CHARGES

@<TRIPOS>ATOM
      1 C1         -0.0341    1.5032   -0.0733 C.3       1 <0>        -0.0904
      2 C2         -0.0038   -0.0031   -0.0363 C.2       1 <0>        -0.2239
      3 C3         -1.1536   -0.7095    0.0086 C.2       1 <0>         0.1052
      4 N1         -1.1081   -2.0767    0.0418 N.am      1 <0>        -0.5535
      5 C4          0.0716   -2.7235    0.0306 C.2       1 <0>         0.6819
      6 O1          0.0890   -3.9389    0.0611 O.2       1 <0>        -0.5034
      7 N2          1.2327   -2.0442   -0.0143 N.am      1 <0>        -0.5464
      8 C5          1.2304   -0.6964   -0.0539 C.2       1 <0>         0.5395
      9 O2          2.2803   -0.0811   -0.0997 O.2       1 <0>        -0.4886
     10 C6          2.5039   -2.7723   -0.0255 C.3       1 <0>         0.1837
     11 C7          2.8629   -3.1343   -1.4436 C.2       1 <0>        -0.1342
     12 C8          2.1097   -2.6846   -2.4887 C.2       1 <0>        -0.1199
     13 C9          2.4759   -3.0412   -3.7781 C.2       1 <0>        -0.1738
     14 S1          3.9277   -4.0408   -3.4951 S.3       1 <0>         0.1203
     15 C10         3.9717   -3.9286   -1.7139 C.2       1 <0>        -0.1290
     16 C11         4.8974   -4.5027   -0.8084 C.2       1 <0>         0.5459
     17 O3          4.7148   -4.4039    0.3992 O.co2     1 <0>        -0.6611
     18 O4          5.8806   -5.0981   -1.2327 O.co2     1 <0>        -0.6721
     19 C12         1.8295   -2.6852   -5.0584 C.ar      1 <0>         0.0261
     20 C13         0.6905   -1.8780   -5.0682 C.ar      1 <0>        -0.1179
     21 C14         0.0923   -1.5490   -6.2669 C.ar      1 <0>        -0.1159
     22 C15         0.6185   -2.0176   -7.4577 C.ar      1 <0>        -0.1289
     23 C16         1.7471   -2.8180   -7.4552 C.ar      1 <0>        -0.1073
     24 C17         2.3585   -3.1498   -6.2639 C.ar      1 <0>        -0.1132
     25 C18        -2.3556   -2.8433    0.0905 C.3       1 <0>         0.1090
     26 C19        -2.8239   -3.1463   -1.3343 C.3       1 <0>        -0.0664
     27 H1         -2.1020   -3.8010   -1.8225 H         1 <0>         0.1441
     28 C20        -4.1677   -3.8268   -1.2873 C.2       1 <0>         0.4965
     29 O5         -5.1891   -3.1615   -1.3113 O.co2     1 <0>        -0.6656
     30 O6         -4.2334   -5.0427   -1.2253 O.co2     1 <0>        -0.6212
     31 N3         -2.9365   -1.8916   -2.0899 N.4       1 <0>        -0.6152
     32 H2          0.9857    1.8862   -0.1119 H         1 <0>         0.0853
     33 H3         -0.5802    1.8340   -0.9567 H         1 <0>         0.0715
     34 H4         -0.5296    1.8787    0.8220 H         1 <0>         0.0744
     35 H5         -2.1047   -0.1979    0.0186 H         1 <0>         0.1757
     36 H6          3.2867   -2.1431    0.3981 H         1 <0>         0.1170
     37 H7          2.4073   -3.6813    0.5682 H         1 <0>         0.1225
     38 H8          1.2440   -2.0626   -2.3151 H         1 <0>         0.1064
     39 H9          0.2785   -1.5122   -4.1393 H         1 <0>         0.1109
     40 H10        -0.7889   -0.9247   -6.2759 H         1 <0>         0.1210
     41 H11         0.1459   -1.7577   -8.3934 H         1 <0>         0.1218
     42 H12         2.1527   -3.1804   -8.3883 H         1 <0>         0.1256
     43 H13         3.2420   -3.7709   -6.2636 H         1 <0>         0.1262
     44 H14        -2.1867   -3.7786    0.6241 H         1 <0>         0.1421
     45 H15        -3.1190   -2.2625    0.6080 H         1 <0>         0.1196
     46 H16        -3.6048   -1.2856   -1.6380 H         1 <0>         0.4309
     47 H17        -2.0368   -1.4360   -2.1214 H         1 <0>         0.4099
     48 H18        -3.2453   -2.0915   -3.0295 H         1 <0>         0.4351
@<TRIPOS>BOND
     1    1    2 1
     2    1   32 1
     3    1   33 1
     4    1   34 1
     5    2    8 1
     6    2    3 2
     7    3    4 1
     8    3   35 1
     9    4    5 am
    10    4   25 1
    11    5    6 2
    12    5    7 am
    13    7    8 am
    14    7   10 1
    15    8    9 2
    16   10   11 1
    17   10   36 1
    18   10   37 1
    19   11   15 2
    20   11   12 1
    21   12   13 2
    22   12   38 1
    23   13   14 1
    24   13   19 1
    25   14   15 1
    26   15   16 1
    27   16   17 2
    28   16   18 1
    29   19   24 ar
    30   19   20 ar
    31   20   21 ar
    32   20   39 1
    33   21   22 ar
    34   21   40 1
    35   22   23 ar
    36   22   41 1
    37   23   24 ar
    38   23   42 1
    39   24   43 1
    40   25   26 1
    41   25   44 1
    42   25   45 1
    43   26   27 1
    44   26   28 1
    45   26   31 1
    46   28   29 2
    47   28   30 1
    48   31   46 1
    49   31   47 1
    50   31   48 1
@<TRIPOS>MOLECULE
CHEMBL375004
   38    39     0     0     0
SMALL
USER_CHARGES

@<TRIPOS>ATOM
      1 C1          0.6011    0.5353    1.1615 C.2       1 <0>        -0.1603
      2 C2          1.6500    1.3919    1.0670 C.2       1 <0>        -0.2859
      3 S1          1.7384    1.7566   -0.5705 S.3       1 <0>         0.2027
      4 C3          0.3738    0.7690   -1.1542 C.2       1 <0>        -0.1662
      5 C4         -0.0842    0.1910    0.0236 C.2       1 <0>        -0.1317
      6 C5         -1.2579   -0.7539    0.0495 C.3       1 <0>         0.1898
      7 N1         -1.5797   -1.0949    1.4374 N.am      1 <0>        -0.5394
      8 C6         -1.0278   -2.1858    2.0062 C.2       1 <0>         0.5557
      9 O1         -0.2627   -2.8892    1.3715 O.2       1 <0>        -0.4666
     10 C7         -1.3456   -2.5055    3.3482 C.2       1 <0>        -0.3390
     11 C8         -2.1964   -1.7087    4.0296 C.2       1 <0>         0.1990
     12 N2         -2.7351   -0.6107    3.4158 N.am      1 <0>        -0.5454
     13 C9         -2.4209   -0.3150    2.1415 C.2       1 <0>         0.6823
     14 O2         -2.9075    0.6681    1.6169 O.2       1 <0>        -0.4865
     15 C10        -3.6586    0.2536    4.1549 C.3       1 <0>         0.1024
     16 C11        -2.8685    1.3538    4.8664 C.3       1 <0>        -0.0683
     17 H1         -2.3985    2.0007    4.1255 H         1 <0>         0.1477
     18 C12        -3.8022    2.1683    5.7242 C.2       1 <0>         0.4967
     19 O3         -4.0030    1.8459    6.8827 O.co2     1 <0>        -0.6620
     20 O4         -4.3569    3.1496    5.2596 O.co2     1 <0>        -0.6183
     21 N3         -1.8330    0.7446    5.7117 N.4       1 <0>        -0.6172
     22 C13        -0.7427   -3.7193    4.0073 C.3       1 <0>         0.5445
     23 F1         -1.5123   -4.8467    3.7011 F         1 <0>        -0.1667
     24 F2          0.5625   -3.9044    3.5389 F         1 <0>        -0.1539
     25 F3         -0.7187   -3.5335    5.3937 F         1 <0>        -0.1814
     26 C14        -0.1162    0.6138   -2.4754 C.2       1 <0>         0.5481
     27 O5          0.3471    1.2921   -3.3842 O.co2     1 <0>        -0.6758
     28 O6         -1.0031   -0.1985   -2.7082 O.co2     1 <0>        -0.6669
     29 H2          0.3127    0.1268    2.1188 H         1 <0>         0.0975
     30 H3          2.2830    1.7558    1.8628 H         1 <0>         0.1726
     31 H4         -2.1195   -0.2758   -0.4164 H         1 <0>         0.1210
     32 H5         -1.0057   -1.6617   -0.4986 H         1 <0>         0.1229
     33 H6         -2.4508   -1.9370    5.0541 H         1 <0>         0.1916
     34 H7         -4.3670    0.7059    3.4609 H         1 <0>         0.1505
     35 H8         -4.2001   -0.3393    4.8919 H         1 <0>         0.1269
     36 H9         -1.2078    0.1993    5.1374 H         1 <0>         0.4084
     37 H10        -1.3120    1.4701    6.1809 H         1 <0>         0.4384
     38 H11        -2.2681    0.1458    6.3975 H         1 <0>         0.4323
@<TRIPOS>BOND
     1    1    5 1
     2    1    2 2
     3    1   29 1
     4    2    3 1
     5    2   30 1
     6    3    4 1
     7    4    5 2
     8    4   26 1
     9    5    6 1
    10    6    7 1
    11    6   31 1
    12    6   32 1
    13    7   13 am
    14    7    8 am
    15    8    9 2
    16    8   10 1
    17   10   11 2
    18   10   22 1
    19   11   12 1
    20   11   33 1
    21   12   13 am
    22   12   15 1
    23   13   14 2
    24   15   16 1
    25   15   34 1
    26   15   35 1
    27   16   17 1
    28   16   18 1
    29   16   21 1
    30   18   19 2
    31   18   20 1
    32   21   36 1
    33   21   37 1
    34   21   38 1
    35   22   23 1
    36   22   24 1
    37   22   25 1
    38   26   27 2
    39   26   28 1
@<TRIPOS>MOLECULE
CHEMBL13260
   26    28     0     0     0
SMALL
USER_CHARGES

@<TRIPOS>ATOM
      1 C1         -0.0427    0.5442   -0.5260 C.2       1 <0>        -0.0251
      2 C2          1.2088    0.3378   -0.9777 C.2       1 <0>        -0.0516
      3 N1          2.0613    0.7193    0.0262 N.pl3     1 <0>        -0.4127
      4 C3          1.2918    1.1476    1.0608 C.2       1 <0>         0.2332
      5 N2          0.0371    1.0380    0.7186 N.2       1 <0>        -0.4915
      6 C4          3.4606    0.6752   -0.0080 C.ar      1 <0>         0.1187
      7 C5          4.1478    1.3660   -0.9919 C.ar      1 <0>        -0.1065
      8 C6          5.5360    1.3218   -1.0253 C.ar      1 <0>         0.0977
      9 C7          6.2341    0.5748   -0.0584 C.ar      1 <0>         0.1864
     10 C8          5.5172   -0.1174    0.9292 C.ar      1 <0>        -0.0500
     11 C9          4.1551   -0.0595    0.9520 C.ar      1 <0>        -0.0329
     12 N3          3.4071   -0.7879    2.0012 N.pl3     1 <0>         0.0380
     13 O1          4.0029   -1.3266    2.9048 O.2       1 <0>        -0.1604
     14 O2          2.2003   -0.8442    1.9546 O.3       1 <0>        -0.1596
     15 N4          7.5813    0.5204   -0.0745 N.2       1 <0>        -0.5991
     16 C10         8.2707    1.1565   -0.9842 C.2       1 <0>         0.4240
     17 C11         7.5798    1.9499   -2.0144 C.2       1 <0>         0.4779
     18 N5          6.2302    2.0090   -2.0040 N.am      1 <0>        -0.6289
     19 O3          8.2166    2.5455   -2.8641 O.2       1 <0>        -0.5055
     20 O4          9.6241    1.0863   -0.9792 O.3       1 <0>        -0.6031
     21 H1         -0.9534    0.3501   -1.0731 H         1 <0>         0.1689
     22 H2          1.4877   -0.0536   -1.9449 H         1 <0>         0.1709
     23 H3          1.6571    1.5168    2.0078 H         1 <0>         0.1937
     24 H4          3.6061    1.9372   -1.7313 H         1 <0>         0.1453
     25 H5          6.0450   -0.6931    1.6751 H         1 <0>         0.1660
     26 H6          5.7551    2.5255   -2.6736 H         1 <0>         0.4062
@<TRIPOS>BOND
     1    1    5 1
     2    1    2 2
     3    1   21 1
     4    2    3 1
     5    2   22 1
     6    3    4 1
     7    3    6 1
     8    4    5 2
     9    4   23 1
    10    6   11 ar
    11    6    7 ar
    12    7    8 ar
    13    7   24 1
    14    8   18 1
    15    8    9 ar
    16    9   10 ar
    17    9   15 1
    18   10   11 ar
    19   10   25 1
    20   11   12 1
    21   12   13 2
    22   12   14 1
    23   15   16 2
    24   16   17 1
    25   16   20 1
    26   17   18 am
    27   17   19 2
    28   18   26 1
@<TRIPOS>MOLECULE
CHEMBL13260__1
   26    28     0     0     0
SMALL
USER_CHARGES

@<TRIPOS>ATOM
      1 C1          0.0021    1.0261    0.6815 C.2       1 <0>        -0.0328
      2 C2          1.2851    1.1518    1.0710 C.2       1 <0>        -0.0035
      3 N1          2.0612    0.7200    0.0269 N.pl3     1 <0>        -0.4186
      4 C3          1.2169    0.3440   -0.9683 C.2       1 <0>         0.1943
      5 N2         -0.0103    0.5316   -0.5652 N.2       1 <0>        -0.4866
      6 C4          3.4631    0.6752   -0.0075 C.ar      1 <0>         0.1872
      7 C5          4.1483    1.3642   -0.9882 C.ar      1 <0>        -0.1214
      8 C6          5.5486    1.3201   -1.0226 C.ar      1 <0>         0.2401
      9 C7          6.2409    0.5716   -0.0537 C.ar      1 <0>         0.0483
     10 C8          5.5325   -0.1160    0.9268 C.ar      1 <0>        -0.0431
     11 C9          4.1569   -0.0597    0.9520 C.ar      1 <0>        -0.1014
     12 N3          3.4100   -0.7888    2.0017 N.pl3     1 <0>         0.0519
     13 O1          4.0069   -1.3273    2.9047 O.2       1 <0>        -0.1911
     14 O2          2.2033   -0.8458    1.9559 O.3       1 <0>        -0.1636
     15 N4          7.6231    0.5201   -0.0760 N.am      1 <0>        -0.6298
     16 C10         8.2893    1.1961   -1.0371 C.2       1 <0>         0.4781
     17 C11         7.5249    1.9678   -2.0326 C.2       1 <0>         0.4315
     18 N5          6.2198    1.9933   -1.9802 N.2       1 <0>        -0.6005
     19 O3          8.1765    2.6523   -3.0035 O.3       1 <0>        -0.5880
     20 O4          9.5056    1.1685   -1.0799 O.2       1 <0>        -0.5063
     21 H1         -0.8666    1.2759    1.2725 H         1 <0>         0.1696
     22 H2          1.6353    1.5219    2.0233 H         1 <0>         0.1635
     23 H3          1.5115   -0.0444   -1.9320 H         1 <0>         0.2051
     24 H4          3.6064    1.9355   -1.7274 H         1 <0>         0.1574
     25 H5          6.0625   -0.6912    1.6715 H         1 <0>         0.1524
     26 H6          8.1069    0.0062    0.5893 H         1 <0>         0.4074
@<TRIPOS>BOND
     1    1    5 1
     2    1    2 2
     3    1   21 1
     4    2    3 1
     5    2   22 1
     6    3    4 1
     7    3    6 1
     8    4    5 2
     9    4   23 1
    10    6   11 ar
    11    6    7 ar
    12    7    8 ar
    13    7   24 1
    14    8   18 1
    15    8    9 ar
    16    9   10 ar
    17    9   15 1
    18   10   11 ar
    19   10   25 1
    20   11   12 1
    21   12   13 2
    22   12   14 1
    23   15   16 am
    24   15   26 1
    25   16   17 1
    26   16   20 2
    27   17   18 2
    28   17   19 1
@<TRIPOS>MOLECULE
CHEMBL13260__2
   27    29     0     0     0
SMALL
USER_CHARGES

@<TRIPOS>ATOM
      1 C1         -0.0420    0.5400   -0.5314 C.2       1 <0>        -0.0063
      2 C2          1.2106    0.3345   -0.9812 C.2       1 <0>        -0.0534
      3 N1          2.0611    0.7160    0.0240 N.pl3     1 <0>        -0.4382
      4 C3          1.2902    1.1432    1.0573 C.2       1 <0>         0.2377
      5 N2          0.0358    1.0332    0.7134 N.2       1 <0>        -0.4758
      6 C4          3.4628    0.6732   -0.0086 C.ar      1 <0>         0.2086
      7 C5          4.1533    1.3638   -0.9916 C.ar      1 <0>        -0.1178
      8 C6          5.5416    1.3220   -1.0247 C.ar      1 <0>         0.1918
      9 C7          6.2365    0.5821   -0.0651 C.ar      1 <0>         0.1277
     10 C8          5.5350   -0.1082    0.9174 C.ar      1 <0>        -0.0389
     11 C9          4.1572   -0.0574    0.9489 C.ar      1 <0>        -0.0426
     12 N3          3.4154   -0.7886    2.0007 N.pl3     1 <0>         0.0306
     13 O1          4.0164   -1.3259    2.9017 O.2       1 <0>        -0.1407
     14 O2          2.2087   -0.8485    1.9587 O.3       1 <0>        -0.1333
     15 N4          7.6280    0.5288   -0.0836 N.am      1 <0>        -0.6314
     16 C10         8.3177    1.1945   -1.0320 C.2       1 <0>         0.5123
     17 C11         7.5754    1.9847   -2.0560 C.2       1 <0>         0.5126
     18 N5          6.2281    2.0184   -2.0154 N.am      1 <0>        -0.6326
     19 O3          8.1785    2.5911   -2.9184 O.2       1 <0>        -0.4391
     20 O4          9.5315    1.1512   -1.0518 O.2       1 <0>        -0.4434
     21 H1         -0.9518    0.3457   -1.0799 H         1 <0>         0.1777
     22 H2          1.4912   -0.0559   -1.9483 H         1 <0>         0.1790
     23 H3          1.6541    1.5121    2.0049 H         1 <0>         0.2004
     24 H4          3.6123    1.9341   -1.7322 H         1 <0>         0.1717
     25 H5          6.0704   -0.6814    1.6599 H         1 <0>         0.1797
     26 H6          5.7364    2.5291   -2.6775 H         1 <0>         0.4318
     27 H7          8.1018    0.0124    0.5870 H         1 <0>         0.4319
@<TRIPOS>BOND
     1    1    5 1
     2    1    2 2
     3    1   21 1
     4    2    3 1
     5    2   22 1
     6    3    4 1
     7    3    6 1
     8    4    5 2
     9    4   23 1
    10    6   11 ar
    11    6    7 ar
    12    7    8 ar
    13    7   24 1
    14    8   18 1
    15    8    9 ar
    16    9   10 ar
    17    9   15 1
    18   10   11 ar
    19   10   25 1
    20   11   12 1
    21   12   13 2
    22   12   14 1
    23   15   16 am
    24   15   27 1
    25   16   17 1
    26   16   20 2
    27   17   18 am
    28   17   19 2
    29   18   26 1
@<TRIPOS>MOLECULE
CHEMBL372643
   33    34     0     0     0
SMALL
USER_CHARGES

@<TRIPOS>ATOM
      1 C1         -0.0187    1.5258    0.0104 C.3       1 <0>        -0.1476
      2 C2          0.0021   -0.0041    0.0020 C.3       1 <0>        -0.1422
      3 C3         -1.4333   -0.5336    0.0129 C.3       1 <0>         0.1258
      4 N1         -1.4134   -1.9985    0.0048 N.pl3     1 <0>        -0.1363
      5 N2         -1.4082   -2.7377   -1.0507 N.2       1 <0>        -0.2840
      6 C4         -1.3888   -3.9983   -0.6603 C.2       1 <0>         0.2284
      7 N3         -1.3826   -3.9840    0.6815 N.2       1 <0>        -0.2161
      8 N4         -1.3929   -2.7482    1.0509 N.2       1 <0>        -0.0445
      9 C5         -1.3771   -5.1939   -1.5320 C.2       1 <0>         0.1356
     10 C6         -1.3571   -6.4850   -1.1061 C.2       1 <0>        -0.1634
     11 C7         -1.3517   -7.3207   -2.2379 C.2       1 <0>         0.5452
     12 N5         -1.3684   -6.5257   -3.3278 N.am      1 <0>        -0.5748
     13 O1         -1.3903   -5.1838   -2.8748 O.3       1 <0>        -0.0439
     14 O2         -1.3343   -8.5413   -2.2344 O.2       1 <0>        -0.4829
     15 C8         -1.3427   -6.9419    0.3299 C.3       1 <0>        -0.0310
     16 C9         -2.7732   -7.2358    0.7860 C.3       1 <0>         0.0349
     17 C10        -2.7728   -7.5739    2.2546 C.2       1 <0>         0.4684
     18 O3         -2.9075   -6.6901    3.0836 O.co2     1 <0>        -0.6921
     19 O4         -2.6379   -8.7312    2.6137 O.co2     1 <0>        -0.7000
     20 N6         -3.3071   -8.3715    0.0222 N.3       1 <0>        -0.8277
     21 H1          1.0039    1.9031    0.0027 H         1 <0>         0.0668
     22 H2         -0.5459    1.8868   -0.8726 H         1 <0>         0.0614
     23 H3         -0.5289    1.8773    0.9072 H         1 <0>         0.0632
     24 H4          0.5123   -0.3556   -0.8948 H         1 <0>         0.0771
     25 H5          0.5293   -0.3651    0.8851 H         1 <0>         0.0797
     26 H6         -1.9435   -0.1821    0.9097 H         1 <0>         0.1218
     27 H7         -1.9605   -0.1726   -0.8702 H         1 <0>         0.1170
     28 H8         -0.7404   -7.8461    0.4175 H         1 <0>         0.0786
     29 H9         -0.9154   -6.1586    0.9561 H         1 <0>         0.0958
     30 H10        -3.3966   -6.3581    0.6154 H         1 <0>         0.0650
     31 H11        -2.7461   -9.1981    0.1638 H         1 <0>         0.3429
     32 H12        -4.2725   -8.5447    0.2591 H         1 <0>         0.3252
     33 H13        -1.3691   -6.8193   -4.2523 H         1 <0>         0.4539
@<TRIPOS>BOND
     1    1    2 1
     2    1   21 1
     3    1   22 1
     4    1   23 1
     5    2    3 1
     6    2   24 1
     7    2   25 1
     8    3    4 1
     9    3   26 1
    10    3   27 1
    11    4    8 1
    12    4    5 1
    13    5    6 2
    14    6    7 1
    15    6    9 1
    16    7    8 2
    17    9   10 2
    18    9   13 1
    19   10   11 1
    20   10   15 1
    21   11   12 am
    22   11   14 2
    23   12   13 1
    24   12   33 1
    25   15   16 1
    26   15   28 1
    27   15   29 1
    28   16   17 1
    29   16   20 1
    30   16   30 1
    31   17   18 2
    32   17   19 1
    33   20   31 1
    34   20   32 1
@<TRIPOS>MOLECULE
CHEMBL372643__1
   33    34     0     0     0
SMALL
USER_CHARGES

@<TRIPOS>ATOM
      1 C1         -0.0187    1.5258    0.0104 C.3       1 <0>        -0.1479
      2 C2          0.0021   -0.0041    0.0020 C.3       1 <0>        -0.1423
      3 C3         -1.4333   -0.5336    0.0129 C.3       1 <0>         0.1245
      4 N1         -1.4134   -1.9985    0.0048 N.pl3     1 <0>        -0.1314
      5 N2         -1.4082   -2.7377   -1.0507 N.2       1 <0>        -0.2779
      6 C4         -1.3888   -3.9983   -0.6603 C.2       1 <0>         0.2262
      7 N3         -1.3826   -3.9840    0.6815 N.2       1 <0>        -0.2280
      8 N4         -1.3929   -2.7482    1.0509 N.2       1 <0>        -0.0398
      9 C5         -1.3771   -5.1939   -1.5320 C.2       1 <0>         0.1438
     10 C6         -1.3571   -6.4850   -1.1061 C.2       1 <0>        -0.1880
     11 C7         -1.3517   -7.3207   -2.2379 C.2       1 <0>         0.5368
     12 N5         -1.3684   -6.5257   -3.3278 N.am      1 <0>        -0.5692
     13 O1         -1.3903   -5.1838   -2.8748 O.3       1 <0>        -0.0385
     14 O2         -1.3343   -8.5413   -2.2344 O.2       1 <0>        -0.4896
     15 C8         -1.3427   -6.9419    0.3299 C.3       1 <0>        -0.0747
     16 C9         -2.7732   -7.2358    0.7860 C.3       1 <0>         0.0373
     17 C10        -2.7485   -7.8087    2.1796 C.2       1 <0>         0.5058
     18 O3         -3.1665   -7.1503    3.1169 O.co2     1 <0>        -0.6807
     19 O4         -2.3105   -8.9305    2.3699 O.co2     1 <0>        -0.7006
     20 N6         -3.5540   -5.9915    0.7818 N.3       1 <0>        -0.8182
     21 H1          1.0039    1.9031    0.0027 H         1 <0>         0.0674
     22 H2         -0.5459    1.8868   -0.8726 H         1 <0>         0.0618
     23 H3         -0.5289    1.8773    0.9072 H         1 <0>         0.0638
     24 H4          0.5123   -0.3556   -0.8948 H         1 <0>         0.0771
     25 H5          0.5293   -0.3651    0.8851 H         1 <0>         0.0799
     26 H6         -1.9435   -0.1821    0.9097 H         1 <0>         0.1238
     27 H7         -1.9605   -0.1726   -0.8702 H         1 <0>         0.1187
     28 H8         -0.7404   -7.8461    0.4175 H         1 <0>         0.0919
     29 H9         -0.9154   -6.1586    0.9561 H         1 <0>         0.0908
     30 H10        -3.2310   -7.9542    0.1059 H         1 <0>         0.0713
     31 H11        -3.1495   -5.3088    1.4051 H         1 <0>         0.3471
     32 H12        -3.6398   -5.6216   -0.1530 H         1 <0>         0.3018
     33 H13        -1.3691   -6.8193   -4.2523 H         1 <0>         0.4570
@<TRIPOS>BOND
     1    1    2 1
     2    1   21 1
     3    1   22 1
     4    1   23 1
     5    2    3 1
     6    2   24 1
     7    2   25 1
     8    3    4 1
     9    3   26 1
    10    3   27 1
    11    4    8 1
    12    4    5 1
    13    5    6 2
    14    6    7 1
    15    6    9 1
    16    7    8 2
    17    9   10 2
    18    9   13 1
    19   10   11 1
    20   10   15 1
    21   11   12 am
    22   11   14 2
    23   12   13 1
    24   12   33 1
    25   15   16 1
    26   15   28 1
    27   15   29 1
    28   16   17 1
    29   16   20 1
    30   16   30 1
    31   17   18 2
    32   17   19 1
    33   20   31 1
    34   20   32 1
@<TRIPOS>MOLECULE
CHEMBL14725
   28    31     0     0     0
SMALL
USER_CHARGES

@<TRIPOS>ATOM
      1 C1         -0.0167    1.3814    0.0096 C.ar      1 <0>        -0.1474
      2 C2          1.1643    2.0936    0.0022 C.ar      1 <0>        -0.0629
      3 C3          2.3857    1.4154   -0.0131 C.ar      1 <0>        -0.0573
      4 C4          2.3936    0.0212   -0.0207 C.ar      1 <0>        -0.0494
      5 C5          1.2116   -0.6831   -0.0125 C.ar      1 <0>        -0.1254
      6 C6          0.0021   -0.0041    0.0020 C.ar      1 <0>         0.1097
      7 F1         -1.1591   -0.6945    0.0099 F         1 <0>        -0.1337
      8 C7          3.8410   -0.4010   -0.0377 C.3       1 <0>        -0.0276
      9 C8          4.6411    0.8832   -0.0389 C.2       1 <0>         0.0317
     10 C9          3.7818    1.9138   -0.0246 C.2       1 <0>         0.1186
     11 N1          4.2485    3.2291   -0.0223 N.am      1 <0>        -0.6325
     12 C10         5.5699    3.4911   -0.0343 C.2       1 <0>         0.6067
     13 C11         6.5160    2.3608   -0.0500 C.2       1 <0>         0.1028
     14 N2          6.0098    1.0856   -0.0526 N.pl3     1 <0>        -0.3633
     15 C12         7.0541    0.2346   -0.0683 C.2       1 <0>         0.0025
     16 C13         8.2017    1.0076   -0.0771 C.2       1 <0>        -0.0134
     17 N3          7.8266    2.2978   -0.0638 N.2       1 <0>        -0.3646
     18 C14         9.5856    0.5063   -0.0945 C.2       1 <0>         0.5601
     19 O1          9.7998   -0.6982   -0.1024 O.co2     1 <0>        -0.6826
     20 O2         10.5215    1.2941   -0.1009 O.co2     1 <0>        -0.6613
     21 O3          5.9748    4.6388   -0.0326 O.2       1 <0>        -0.4925
     22 H1         -0.9606    1.9059    0.0260 H         1 <0>         0.1432
     23 H2          1.1450    3.1734    0.0078 H         1 <0>         0.1373
     24 H3          1.2256   -1.7630   -0.0185 H         1 <0>         0.1456
     25 H4          4.0725   -0.9880    0.8511 H         1 <0>         0.1209
     26 H5          4.0543   -0.9784   -0.9372 H         1 <0>         0.1209
     27 H6          7.0049   -0.8442   -0.0729 H         1 <0>         0.1954
     28 H7          3.6142    3.9630   -0.0122 H         1 <0>         0.4185
@<TRIPOS>BOND
     1    1    6 ar
     2    1    2 ar
     3    1   22 1
     4    2    3 ar
     5    2   23 1
     6    3   10 1
     7    3    4 ar
     8    4    5 ar
     9    4    8 1
    10    5    6 ar
    11    5   24 1
    12    6    7 1
    13    8    9 1
    14    8   25 1
    15    8   26 1
    16    9   14 1
    17    9   10 2
    18   10   11 1
    19   11   12 am
    20   11   28 1
    21   12   13 1
    22   12   21 2
    23   13   17 2
    24   13   14 1
    25   14   15 1
    26   15   16 2
    27   15   27 1
    28   16   17 1
    29   16   18 1
    30   18   19 2
    31   18   20 1
@<TRIPOS>MOLECULE
CHEMBL14725__1
   27    30     0     0     0
SMALL
USER_CHARGES

@<TRIPOS>ATOM
      1 C1         -0.0167    1.3811    0.0096 C.ar      1 <0>        -0.1578
      2 C2          1.1651    2.0927    0.0022 C.ar      1 <0>        -0.0590
      3 C3          2.3852    1.4152   -0.0131 C.ar      1 <0>        -0.0195
      4 C4          2.3943    0.0229   -0.0207 C.ar      1 <0>        -0.0629
      5 C5          1.2116   -0.6822   -0.0132 C.ar      1 <0>        -0.1344
      6 C6          0.0021   -0.0041    0.0020 C.ar      1 <0>         0.0820
      7 F1         -1.1589   -0.6949    0.0099 F         1 <0>        -0.1473
      8 C7          3.8402   -0.4056   -0.0373 C.3       1 <0>        -0.0048
      9 C8          4.6481    0.8718   -0.0385 C.2       1 <0>        -0.1318
     10 C9          3.7844    1.9177   -0.0243 C.2       1 <0>         0.1734
     11 N1          4.2390    3.1909   -0.0215 N.2       1 <0>        -0.6202
     12 C10         5.5217    3.4649   -0.0324 C.2       1 <0>         0.5088
     13 C11         6.4866    2.3643   -0.0479 C.2       1 <0>         0.1155
     14 N2          6.0026    1.0780   -0.0515 N.pl3     1 <0>        -0.3216
     15 C12         7.0635    0.2441   -0.0668 C.2       1 <0>        -0.0655
     16 C13         8.1962    1.0339   -0.0746 C.2       1 <0>        -0.0290
     17 N3          7.8020    2.3206   -0.0607 N.2       1 <0>        -0.4160
     18 C14         9.5881    0.5536   -0.0908 C.2       1 <0>         0.5663
     19 O1          9.8206   -0.6474   -0.0986 O.co2     1 <0>        -0.7022
     20 O2         10.5119    1.3556   -0.0965 O.co2     1 <0>        -0.6782
     21 O3          5.9483    4.7511   -0.0297 O.3       1 <0>        -0.6538
     22 H1         -0.9604    1.9060    0.0260 H         1 <0>         0.1325
     23 H2          1.1461    3.1725    0.0078 H         1 <0>         0.1391
     24 H3          1.2259   -1.7621   -0.0195 H         1 <0>         0.1329
     25 H4          4.0683   -0.9940    0.8514 H         1 <0>         0.0908
     26 H5          4.0506   -0.9844   -0.9367 H         1 <0>         0.0908
     27 H6          7.0325   -0.8354   -0.0716 H         1 <0>         0.1718
@<TRIPOS>BOND
     1    1    6 ar
     2    1    2 ar
     3    1   22 1
     4    2    3 ar
     5    2   23 1
     6    3   10 1
     7    3    4 ar
     8    4    5 ar
     9    4    8 1
    10    5    6 ar
    11    5   24 1
    12    6    7 1
    13    8    9 1
    14    8   25 1
    15    8   26 1
    16    9   14 1
    17    9   10 2
    18   10   11 1
    19   11   12 2
    20   12   13 1
    21   12   21 1
    22   13   17 2
    23   13   14 1
    24   14   15 1
    25   15   16 2
    26   15   27 1
    27   16   17 1
    28   16   18 1
    29   18   19 2
    30   18   20 1
@<TRIPOS>MOLECULE
CHEMBL372797
   38    39     0     0     0
SMALL
USER_CHARGES

@<TRIPOS>ATOM
      1 C1          1.1975    1.8462    0.8858 C.ar      1 <0>        -0.1250
      2 C2          0.9860    2.3434   -0.3884 C.ar      1 <0>        -0.1401
      3 C3          0.8519    1.4804   -1.4555 C.ar      1 <0>        -0.0771
      4 C4          0.9305    0.1007   -1.2480 C.ar      1 <0>        -0.1255
      5 C5          1.1446   -0.3940    0.0408 C.ar      1 <0>        -0.0593
      6 C6          1.2763    0.4813    1.0988 C.ar      1 <0>        -0.1365
      7 C7          1.2303   -1.8802    0.2749 C.3       1 <0>         0.1670
      8 N1          1.3663   -2.1415    1.7099 N.am      1 <0>        -0.5482
      9 C8          2.5884   -2.1406    2.2797 C.2       1 <0>         0.5330
     10 O1          3.5800   -1.9236    1.6070 O.2       1 <0>        -0.4914
     11 C9          2.7079   -2.3939    3.6675 C.2       1 <0>        -0.2574
     12 C10         1.5926   -2.6312    4.3905 C.2       1 <0>         0.1139
     13 N2          0.3710   -2.6231    3.7741 N.am      1 <0>        -0.5561
     14 C11         0.2704   -2.3760    2.4554 C.2       1 <0>         0.6824
     15 O2         -0.8254   -2.3691    1.9287 O.2       1 <0>        -0.5078
     16 C12        -0.8393   -2.8810    4.5584 C.3       1 <0>         0.1082
     17 C13        -1.3870   -1.5593    5.1004 C.3       1 <0>        -0.0664
     18 H1         -1.7100   -0.9319    4.2696 H         1 <0>         0.1443
     19 C14        -2.5590   -1.8352    6.0068 C.2       1 <0>         0.4959
     20 O3         -2.3785   -2.0141    7.1992 O.co2     1 <0>        -0.6661
     21 O4         -3.6876   -1.8794    5.5476 O.co2     1 <0>        -0.6219
     22 N3         -0.3353   -0.8668    5.8569 N.4       1 <0>        -0.6149
     23 C15         0.7875   -0.8291   -2.3846 C.2       1 <0>         0.5201
     24 O5          0.4868   -0.4017   -3.4902 O.co2     1 <0>        -0.6804
     25 O6          0.9696   -2.0273   -2.2210 O.co2     1 <0>        -0.6805
     26 H2          1.3059    2.5269    1.7172 H         1 <0>         0.1103
     27 H3          0.9255    3.4100   -0.5473 H         1 <0>         0.1159
     28 H4          0.6862    1.8698   -2.4492 H         1 <0>         0.1299
     29 H5          1.4415    0.1003    2.0958 H         1 <0>         0.0938
     30 H6          0.3249   -2.3595   -0.0975 H         1 <0>         0.1260
     31 H7          2.0965   -2.2815   -0.2512 H         1 <0>         0.1251
     32 H8          3.6784   -2.3977    4.1415 H         1 <0>         0.1743
     33 H9          1.6643   -2.8267    5.4502 H         1 <0>         0.1763
     34 H10        -1.5898   -3.3525    3.9239 H         1 <0>         0.1417
     35 H11        -0.5989   -3.5431    5.3902 H         1 <0>         0.1195
     36 H12        -0.0363   -1.4476    6.6259 H         1 <0>         0.4307
     37 H13         0.4494   -0.6821    5.2500 H         1 <0>         0.4112
     38 H14        -0.6965    0.0049    6.2143 H         1 <0>         0.4349
@<TRIPOS>BOND
     1    1    6 ar
     2    1    2 ar
     3    1   26 1
     4    2    3 ar
     5    2   27 1
     6    3    4 ar
     7    3   28 1
     8    4    5 ar
     9    4   23 1
    10    5    6 ar
    11    5    7 1
    12    6   29 1
    13    7    8 1
    14    7   30 1
    15    7   31 1
    16    8   14 am
    17    8    9 am
    18    9   10 2
    19    9   11 1
    20   11   12 2
    21   11   32 1
    22   12   13 1
    23   12   33 1
    24   13   14 am
    25   13   16 1
    26   14   15 2
    27   16   17 1
    28   16   34 1
    29   16   35 1
    30   17   18 1
    31   17   19 1
    32   17   22 1
    33   19   20 2
    34   19   21 1
    35   22   36 1
    36   22   37 1
    37   22   38 1
    38   23   24 2
    39   23   25 1
@<TRIPOS>MOLECULE
CHEMBL64772
   27    29     0     0     0
SMALL
USER_CHARGES

@<TRIPOS>ATOM
      1 C1         -0.0429    0.5472   -0.5242 C.2       1 <0>        -0.0216
      2 C2          1.2085    0.3403   -0.9764 C.2       1 <0>        -0.0457
      3 N1          2.0613    0.7207    0.0274 N.pl3     1 <0>        -0.4230
      4 C3          1.2928    1.1487    1.0622 C.2       1 <0>         0.2348
      5 N2          0.0377    1.0401    0.7205 N.2       1 <0>        -0.4876
      6 C4          3.4630    0.6757   -0.0075 C.ar      1 <0>         0.1835
      7 C5          4.1467    1.3644   -0.9882 C.ar      1 <0>        -0.0863
      8 C6          5.5468    1.3182   -1.0215 C.ar      1 <0>         0.1107
      9 C7          6.2400    0.5677   -0.0512 C.ar      1 <0>         0.0735
     10 C8          5.5312   -0.1195    0.9300 C.ar      1 <0>        -0.0237
     11 C9          4.1568   -0.0606    0.9531 C.ar      1 <0>        -0.0851
     12 N3          3.4082   -0.7884    2.0024 N.pl3     1 <0>         0.0481
     13 O1          4.0035   -1.3273    2.9062 O.2       1 <0>        -0.1743
     14 O2          2.2014   -0.8440    1.9556 O.3       1 <0>        -0.1585
     15 N4          7.6166    0.5247   -0.0870 N.pl3     1 <0>        -0.5740
     16 H1          8.1099    0.0128    0.5729 H         1 <0>         0.4257
     17 C10         8.2690    1.2045   -1.0535 C.2       1 <0>         0.4729
     18 O3          9.6163    1.1742   -1.1045 O.3       1 <0>        -0.5507
     19 C11         7.5520    1.9393   -2.0016 C.2       1 <0>         0.3262
     20 O4          8.2228    2.6181   -2.9695 O.3       1 <0>        -0.5390
     21 N5          6.2338    1.9844   -1.9711 N.pl3     1 <0>        -0.1064
     22 O5          5.6323    2.6321   -2.8091 O.2       1 <0>        -0.4808
     23 H2         -0.9540    0.3540   -1.0711 H         1 <0>         0.1718
     24 H3          1.4870   -0.0503   -1.9440 H         1 <0>         0.1751
     25 H4          1.6588    1.5170    2.0092 H         1 <0>         0.1953
     26 H5          3.6051    1.9362   -1.7272 H         1 <0>         0.1718
     27 H6          6.0599   -0.6958    1.6748 H         1 <0>         0.1675
@<TRIPOS>BOND
     1    1    5 1
     2    1    2 2
     3    1   23 1
     4    2    3 1
     5    2   24 1
     6    3    4 1
     7    3    6 1
     8    4    5 2
     9    4   25 1
    10    6   11 ar
    11    6    7 ar
    12    7    8 ar
    13    7   26 1
    14    8   21 1
    15    8    9 ar
    16    9   10 ar
    17    9   15 1
    18   10   11 ar
    19   10   27 1
    20   11   12 1
    21   12   13 2
    22   12   14 1
    23   15   16 1
    24   15   17 1
    25   17   18 1
    26   17   19 2
    27   19   20 1
    28   19   21 1
    29   21   22 2
@<TRIPOS>MOLECULE
CHEMBL63927
   58    61     0     0     0
SMALL
USER_CHARGES

@<TRIPOS>ATOM
      1 C1         -0.4318    1.6051    0.1122 C.3       1 <0>        -0.0539
      2 N1         -0.2775    0.1443    0.1237 N.4       1 <0>        -0.3841
      3 C2          0.3640   -0.2706    1.3784 C.3       1 <0>         0.0453
      4 C3         -0.5479    0.0431    2.5364 C.ar      1 <0>        -0.1585
      5 C4         -0.4687    1.2714    3.1655 C.ar      1 <0>        -0.0966
      6 C5         -1.3051    1.5592    4.2278 C.ar      1 <0>        -0.1150
      7 C6         -2.2211    0.6187    4.6607 C.ar      1 <0>        -0.0864
      8 C7         -2.3009   -0.6093    4.0311 C.ar      1 <0>        -0.1138
      9 C8         -1.4674   -0.8955    2.9660 C.ar      1 <0>        -0.0934
     10 C9          0.5566   -0.2690   -1.0127 C.3       1 <0>         0.0828
     11 C10        -0.1582    0.0464   -2.3014 C.2       1 <0>        -0.2339
     12 C11        -1.0433   -0.8043   -2.9936 C.2       1 <0>        -0.1655
     13 C12        -1.4619   -0.1447   -4.0930 C.2       1 <0>         0.0173
     14 N2         -0.8668    1.0842   -4.1055 N.pl3     1 <0>        -0.3985
     15 C13        -0.0725    1.1965   -3.0005 C.2       1 <0>         0.0816
     16 C14        -1.0456    2.0694   -5.0876 C.ar      1 <0>         0.1861
     17 C15        -2.3149    2.5560   -5.3562 C.ar      1 <0>        -0.1185
     18 C16        -2.4930    3.5322   -6.3286 C.ar      1 <0>         0.2097
     19 C17        -1.3895    4.0195   -7.0328 C.ar      1 <0>         0.1276
     20 C18        -0.1194    3.5249   -6.7567 C.ar      1 <0>        -0.0415
     21 C19         0.0517    2.5604   -5.7861 C.ar      1 <0>        -0.0535
     22 N3          1.4065    2.0419   -5.4913 N.pl3     1 <0>         0.0387
     23 O1          2.3738    2.5492   -6.0095 O.2       1 <0>        -0.1490
     24 O2          1.5457    1.1111   -4.7324 O.3       1 <0>        -0.1474
     25 N4         -1.5499    4.9977   -8.0111 N.am      1 <0>        -0.6330
     26 H1         -0.7776    5.3297   -8.4952 H         1 <0>         0.4288
     27 C20        -2.7771    5.4836   -8.2868 C.2       1 <0>         0.5134
     28 O3         -2.9219    6.3362   -9.1398 O.2       1 <0>        -0.4456
     29 C21        -3.9548    4.9634   -7.5345 C.2       1 <0>         0.5015
     30 O4         -5.0685    5.3881   -7.7684 O.2       1 <0>        -0.4250
     31 N5         -3.7713    4.0160   -6.5927 N.am      1 <0>        -0.5229
     32 C22        -4.9191    3.4949   -5.8462 C.3       1 <0>         0.1121
     33 C23        -5.1362    4.3398   -4.5894 C.3       1 <0>        -0.2000
     34 C24        -6.3169    3.8038   -3.8215 C.2       1 <0>         0.4981
     35 O5         -6.9281    2.8356   -4.2406 O.co2     1 <0>        -0.6909
     36 O6         -6.6610    4.3382   -2.7811 O.co2     1 <0>        -0.6895
     37 H2          0.5487    2.0746    0.1916 H         1 <0>         0.1183
     38 H3         -0.9078    1.9129   -0.8188 H         1 <0>         0.1226
     39 H4         -1.0507    1.9117    0.9555 H         1 <0>         0.1213
     40 H5          0.5591   -1.3426    1.3496 H         1 <0>         0.1352
     41 H6          1.3045    0.2667    1.5006 H         1 <0>         0.1333
     42 H7          0.2470    2.0062    2.8273 H         1 <0>         0.1303
     43 H8         -1.2427    2.5186    4.7198 H         1 <0>         0.1342
     44 H9         -2.8741    0.8432    5.4911 H         1 <0>         0.1338
     45 H10        -3.0163   -1.3442    4.3695 H         1 <0>         0.1346
     46 H11        -1.5323   -1.8535    2.4717 H         1 <0>         0.1314
     47 H12         1.5045    0.2684   -0.9821 H         1 <0>         0.1300
     48 H13         0.7447   -1.3410   -0.9545 H         1 <0>         0.1350
     49 H14        -1.3331   -1.8017   -2.6979 H         1 <0>         0.1519
     50 H15        -2.1490   -0.5232   -4.8352 H         1 <0>         0.1759
     51 H16         0.5235    2.0568   -2.7337 H         1 <0>         0.1634
     52 H17        -3.1657    2.1761   -4.8101 H         1 <0>         0.1777
     53 H18         0.7350    3.9001   -7.3003 H         1 <0>         0.1772
     54 H19        -5.8102    3.5393   -6.4724 H         1 <0>         0.1127
     55 H20        -4.7273    2.4607   -5.5602 H         1 <0>         0.0984
     56 H21        -4.2451    4.2954   -3.9633 H         1 <0>         0.0603
     57 H22        -5.3281    5.3740   -4.8755 H         1 <0>         0.0703
     58 H23        -1.1852   -0.2904    0.0502 H         1 <0>         0.4256
@<TRIPOS>BOND
     1    1    2 1
     2    1   37 1
     3    1   38 1
     4    1   39 1
     5    2    3 1
     6    2   10 1
     7    2   58 1
     8    3    4 1
     9    3   40 1
    10    3   41 1
    11    4    9 ar
    12    4    5 ar
    13    5    6 ar
    14    5   42 1
    15    6    7 ar
    16    6   43 1
    17    7    8 ar
    18    7   44 1
    19    8    9 ar
    20    8   45 1
    21    9   46 1
    22   10   11 1
    23   10   47 1
    24   10   48 1
    25   11   15 2
    26   11   12 1
    27   12   13 2
    28   12   49 1
    29   13   14 1
    30   13   50 1
    31   14   15 1
    32   14   16 1
    33   15   51 1
    34   16   21 ar
    35   16   17 ar
    36   17   18 ar
    37   17   52 1
    38   18   31 1
    39   18   19 ar
    40   19   20 ar
    41   19   25 1
    42   20   21 ar
    43   20   53 1
    44   21   22 1
    45   22   23 2
    46   22   24 1
    47   25   26 1
    48   25   27 am
    49   27   28 2
    50   27   29 1
    51   29   30 2
    52   29   31 am
    53   31   32 1
    54   32   33 1
    55   32   54 1
    56   32   55 1
    57   33   34 1
    58   33   56 1
    59   33   57 1
    60   34   35 2
    61   34   36 1
@<TRIPOS>MOLECULE
CHEMBL63927__1
   57    60     0     0     0
SMALL
USER_CHARGES

@<TRIPOS>ATOM
      1 C1         -0.4277    1.6079    0.1387 C.3       1 <0>         0.0200
      2 N1         -0.2683    0.1476    0.1394 N.3       1 <0>        -0.5294
      3 C2          0.3771   -0.3110    1.3768 C.3       1 <0>         0.0937
      4 C3         -0.5364   -0.0495    2.5465 C.ar      1 <0>        -0.0761
      5 C4         -0.4661    1.1540    3.2229 C.ar      1 <0>        -0.1141
      6 C5         -1.3040    1.3939    4.2958 C.ar      1 <0>        -0.1223
      7 C6         -2.2126    0.4304    4.6921 C.ar      1 <0>        -0.1214
      8 C7         -2.2836   -0.7727    4.0151 C.ar      1 <0>        -0.1214
      9 C8         -1.4486   -1.0109    2.9395 C.ar      1 <0>        -0.0972
     10 C9          0.4804   -0.3008   -1.0423 C.3       1 <0>         0.1303
     11 C10        -0.3301   -0.0293   -2.2834 C.2       1 <0>        -0.1424
     12 C11        -1.2607   -0.9039   -2.8794 C.2       1 <0>        -0.1549
     13 C12        -1.7632   -0.2816   -3.9652 C.2       1 <0>        -0.0089
     14 N2         -1.1762    0.9476   -4.0621 N.pl3     1 <0>        -0.4158
     15 C13        -0.3020    1.0976   -3.0238 C.2       1 <0>         0.0370
     16 C14        -1.4324    1.8997   -5.0595 C.ar      1 <0>         0.2150
     17 C15        -2.7204    2.3746   -5.2480 C.ar      1 <0>        -0.1253
     18 C16        -2.9751    3.3182   -6.2355 C.ar      1 <0>         0.2068
     19 C17        -1.9295    3.7845   -7.0358 C.ar      1 <0>         0.1121
     20 C18        -0.6401    3.3018   -6.8396 C.ar      1 <0>        -0.0422
     21 C19        -0.3926    2.3699   -5.8537 C.ar      1 <0>        -0.0581
     22 N3          0.9828    1.8642   -5.6445 N.pl3     1 <0>         0.0374
     23 O1          1.9064    2.3563   -6.2498 O.2       1 <0>        -0.1698
     24 O2          1.1825    0.9590   -4.8683 O.3       1 <0>        -0.1259
     25 N4         -2.1669    4.7298   -8.0306 N.am      1 <0>        -0.6310
     26 H1         -1.4345    5.0474   -8.5815 H         1 <0>         0.4258
     27 C20        -3.4135    5.2039   -8.2293 C.2       1 <0>         0.5141
     28 O3         -3.6255    6.0279   -9.0962 O.2       1 <0>        -0.4589
     29 C21        -4.5293    4.7062   -7.3744 C.2       1 <0>         0.5017
     30 O4         -5.6593    5.1207   -7.5380 O.2       1 <0>        -0.4368
     31 N5         -4.2717    3.7904   -6.4188 N.am      1 <0>        -0.5215
     32 C22        -5.3581    3.2916   -5.5720 C.3       1 <0>         0.1132
     33 C23        -5.4845    4.1768   -4.3304 C.3       1 <0>        -0.2003
     34 C24        -6.6021    3.6636   -3.4594 C.2       1 <0>         0.4997
     35 O5         -7.2385    2.6811   -3.8000 O.co2     1 <0>        -0.6929
     36 O6         -6.8699    4.2311   -2.4140 O.co2     1 <0>        -0.6907
     37 H2          0.5514    2.0803    0.2180 H         1 <0>         0.0205
     38 H3         -0.9080    1.9205   -0.7886 H         1 <0>         0.0721
     39 H4         -1.0449    1.9064    0.9861 H         1 <0>         0.0701
     40 H5          0.5802   -1.3795    1.3062 H         1 <0>         0.0828
     41 H6          1.3135    0.2283    1.5195 H         1 <0>         0.0405
     42 H7          0.2438    1.9068    2.9133 H         1 <0>         0.1167
     43 H8         -1.2485    2.3339    4.8247 H         1 <0>         0.1192
     44 H9         -2.8668    0.6176    5.5308 H         1 <0>         0.1190
     45 H10        -2.9933   -1.5256    4.3249 H         1 <0>         0.1205
     46 H11        -1.5067   -1.9494    2.4083 H         1 <0>         0.1224
     47 H12         1.4255    0.2392   -1.1001 H         1 <0>         0.0383
     48 H13         0.6772   -1.3700   -0.9636 H         1 <0>         0.0821
     49 H14        -1.5230   -1.8918   -2.5306 H         1 <0>         0.1417
     50 H15        -2.5021   -0.6855   -4.6413 H         1 <0>         0.1644
     51 H16         0.3083    1.9674   -2.8305 H         1 <0>         0.1499
     52 H17        -3.5263    2.0111   -4.6277 H         1 <0>         0.1768
     53 H18         0.1696    3.6608   -7.4575 H         1 <0>         0.1726
     54 H19        -6.2937    3.3137   -6.1308 H         1 <0>         0.1097
     55 H20        -5.1408    2.2678   -5.2676 H         1 <0>         0.0998
     56 H21        -4.5489    4.1546   -3.7717 H         1 <0>         0.0635
     57 H22        -5.7019    5.2006   -4.6348 H         1 <0>         0.0677
@<TRIPOS>BOND
     1    1    2 1
     2    1   37 1
     3    1   38 1
     4    1   39 1
     5    2    3 1
     6    2   10 1
     7    3    4 1
     8    3   40 1
     9    3   41 1
    10    4    9 ar
    11    4    5 ar
    12    5    6 ar
    13    5   42 1
    14    6    7 ar
    15    6   43 1
    16    7    8 ar
    17    7   44 1
    18    8    9 ar
    19    8   45 1
    20    9   46 1
    21   10   11 1
    22   10   47 1
    23   10   48 1
    24   11   15 2
    25   11   12 1
    26   12   13 2
    27   12   49 1
    28   13   14 1
    29   13   50 1
    30   14   15 1
    31   14   16 1
    32   15   51 1
    33   16   21 ar
    34   16   17 ar
    35   17   18 ar
    36   17   52 1
    37   18   31 1
    38   18   19 ar
    39   19   20 ar
    40   19   25 1
    41   20   21 ar
    42   20   53 1
    43   21   22 1
    44   22   23 2
    45   22   24 1
    46   25   26 1
    47   25   27 am
    48   27   28 2
    49   27   29 1
    50   29   30 2
    51   29   31 am
    52   31   32 1
    53   32   33 1
    54   32   54 1
    55   32   55 1
    56   33   34 1
    57   33   56 1
    58   33   57 1
    59   34   35 2
    60   34   36 1
@<TRIPOS>MOLECULE
CHEMBL121915
   23    23     0     0     0
SMALL
USER_CHARGES

@<TRIPOS>ATOM
      1 C1         -0.0165    1.3646    0.0095 C.2       1 <0>         0.1753
      2 C2          1.1476    2.0491    0.0021 C.2       1 <0>        -0.2699
      3 C3          2.3685    1.3317   -0.0134 C.2       1 <0>         0.5567
      4 O1          3.4310    1.9268   -0.0200 O.2       1 <0>        -0.4759
      5 N1          2.3437   -0.0164   -0.0204 N.am      1 <0>        -0.6504
      6 H1          3.1758   -0.5148   -0.0310 H         1 <0>         0.4406
      7 C4          1.1690   -0.6735   -0.0123 C.2       1 <0>         0.6916
      8 O2          1.1624   -1.8894   -0.0183 O.2       1 <0>        -0.5046
      9 N2          0.0021   -0.0041    0.0020 N.am      1 <0>        -0.5458
     10 C5         -1.2606   -0.7469    0.0106 C.3       1 <0>         0.1025
     11 C6         -1.7145   -0.9978   -1.4289 C.3       1 <0>        -0.0669
     12 H2         -0.9985   -1.6517   -1.9268 H         1 <0>         0.1455
     13 C7         -3.0717   -1.6527   -1.4207 C.2       1 <0>         0.4937
     14 O3         -4.0796   -0.9668   -1.4384 O.co2     1 <0>        -0.6570
     15 O4         -3.1619   -2.8683   -1.3964 O.co2     1 <0>        -0.6182
     16 N3         -1.7921    0.2809   -2.1477 N.4       1 <0>        -0.6174
     17 I1          1.1474    4.1441    0.0127 I         1 <0>         0.0553
     18 H3         -0.9574    1.8944    0.0259 H         1 <0>         0.1869
     19 H4         -1.1174   -1.7010    0.5179 H         1 <0>         0.1493
     20 H5         -2.0199   -0.1669    0.5351 H         1 <0>         0.1280
     21 H6         -2.4548    0.8862   -1.6868 H         1 <0>         0.4338
     22 H7         -0.8833    0.7194   -2.1532 H         1 <0>         0.4070
     23 H8         -2.0914    0.1155   -3.0970 H         1 <0>         0.4398
@<TRIPOS>BOND
     1    1    9 1
     2    1    2 2
     3    1   18 1
     4    2    3 1
     5    2   17 1
     6    3    4 2
     7    3    5 am
     8    5    6 1
     9    5    7 am
    10    7    8 2
    11    7    9 am
    12    9   10 1
    13   10   11 1
    14   10   19 1
    15   10   20 1
    16   11   12 1
    17   11   13 1
    18   11   16 1
    19   13   14 2
    20   13   15 1
    21   16   21 1
    22   16   22 1
    23   16   23 1
@<TRIPOS>MOLECULE
CHEMBL122054
   38    40     0     0     0
SMALL
USER_CHARGES

@<TRIPOS>ATOM
      1 C1         -0.0187    1.5258    0.0104 C.3       1 <0>        -0.1474
      2 C2          0.0021   -0.0041    0.0020 C.3       1 <0>         0.0743
      3 C3          0.7421   -0.5109    1.2415 C.3       1 <0>        -0.1919
      4 N1         -1.3761   -0.5125    0.0124 N.3       1 <0>        -0.5223
      5 C4         -2.0821   -0.0974    1.2351 C.3       1 <0>         0.0392
      6 C5         -3.5798   -0.3289    1.0331 C.3       1 <0>        -0.0913
      7 C6         -3.8218   -1.7315    0.5358 C.ar      1 <0>         0.0168
      8 C7         -5.1061   -2.2533    0.6307 C.ar      1 <0>        -0.0428
      9 C8         -5.3806   -3.5284    0.1869 C.ar      1 <0>        -0.0508
     10 C9         -4.3655   -4.3038   -0.3625 C.ar      1 <0>         0.1164
     11 C10        -3.0759   -3.7828   -0.4570 C.ar      1 <0>         0.1790
     12 C11        -2.8083   -2.4909   -0.0025 C.ar      1 <0>        -0.0826
     13 C12        -1.3983   -1.9731   -0.1145 C.3       1 <0>         0.0866
     14 N2         -2.0431   -4.5407   -1.0026 N.am      1 <0>        -0.6341
     15 C13        -2.2849   -5.7910   -1.4464 C.2       1 <0>         0.5118
     16 C14        -3.6649   -6.3480   -1.3456 C.2       1 <0>         0.5117
     17 N3         -4.6455   -5.5912   -0.8122 N.am      1 <0>        -0.6305
     18 O1         -3.9031   -7.4718   -1.7400 O.2       1 <0>        -0.4513
     19 O2         -1.3881   -6.4566   -1.9237 O.2       1 <0>        -0.4466
     20 N4         -6.1899   -1.4313    1.2146 N.pl3     1 <0>         0.0395
     21 O3         -7.3095   -1.8795    1.2999 O.2       1 <0>        -0.1578
     22 O4         -5.9555   -0.3118    1.6062 O.3       1 <0>        -0.1479
     23 H1          1.0039    1.9031    0.0027 H         1 <0>         0.0640
     24 H2         -0.5459    1.8868   -0.8726 H         1 <0>         0.0666
     25 H3         -0.5289    1.8773    0.9072 H         1 <0>         0.0597
     26 H4          0.5123   -0.3556   -0.8948 H         1 <0>         0.0877
     27 H5          0.2319   -0.1594    2.1383 H         1 <0>         0.0616
     28 H6          0.7568   -1.6008    1.2356 H         1 <0>         0.0557
     29 H7          1.7647   -0.1336    1.2338 H         1 <0>         0.0678
     30 H8         -1.7307   -0.6898    2.0799 H         1 <0>         0.0471
     31 H9         -1.8972    0.9601    1.4236 H         1 <0>         0.0987
     32 H10        -4.0990   -0.1864    1.9808 H         1 <0>         0.1175
     33 H11        -3.9609    0.3847    0.3026 H         1 <0>         0.1069
     34 H12        -6.3820   -3.9250    0.2660 H         1 <0>         0.1708
     35 H13        -0.9871   -2.2562   -1.0834 H         1 <0>         0.0942
     36 H14        -0.7897   -2.4122    0.6761 H         1 <0>         0.0674
     37 H15        -5.5462   -5.9442   -0.7413 H         1 <0>         0.4296
     38 H16        -1.1493   -4.1690   -1.0638 H         1 <0>         0.4267
@<TRIPOS>BOND
     1    1    2 1
     2    1   23 1
     3    1   24 1
     4    1   25 1
     5    2    3 1
     6    2    4 1
     7    2   26 1
     8    3   27 1
     9    3   28 1
    10    3   29 1
    11    4   13 1
    12    4    5 1
    13    5    6 1
    14    5   30 1
    15    5   31 1
    16    6    7 1
    17    6   32 1
    18    6   33 1
    19    7   12 ar
    20    7    8 ar
    21    8    9 ar
    22    8   20 1
    23    9   10 ar
    24    9   34 1
    25   10   17 1
    26   10   11 ar
    27   11   12 ar
    28   11   14 1
    29   12   13 1
    30   13   35 1
    31   13   36 1
    32   14   15 am
    33   14   38 1
    34   15   16 1
    35   15   19 2
    36   16   17 am
    37   16   18 2
    38   17   37 1
    39   20   21 2
    40   20   22 1
@<TRIPOS>MOLECULE
CHEMBL223841
   38    39     0     0     0
SMALL
USER_CHARGES

@<TRIPOS>ATOM
      1 C1          1.1974    1.8456    0.8862 C.ar      1 <0>        -0.1237
      2 C2          0.9860    2.3432   -0.3879 C.ar      1 <0>        -0.1385
      3 C3          0.8519    1.4804   -1.4552 C.ar      1 <0>        -0.0761
      4 C4          0.9304    0.1007   -1.2480 C.ar      1 <0>        -0.1238
      5 C5          1.1445   -0.3943    0.0407 C.ar      1 <0>        -0.0621
      6 C6          1.2762    0.4807    1.0989 C.ar      1 <0>        -0.1376
      7 C7          1.2302   -1.8806    0.2744 C.3       1 <0>         0.1687
      8 N1          1.3662   -2.1422    1.7094 N.am      1 <0>        -0.5400
      9 C8          2.5883   -2.1415    2.2788 C.2       1 <0>         0.5245
     10 O1          3.5797   -1.9240    1.6057 O.2       1 <0>        -0.4677
     11 C9          2.7087   -2.3959    3.6680 C.2       1 <0>        -0.0349
     12 C10         1.5931   -2.6336    4.3912 C.2       1 <0>         0.0808
     13 N2          0.3696   -2.6251    3.7730 N.am      1 <0>        -0.5453
     14 C11         0.2701   -2.3768    2.4544 C.2       1 <0>         0.6807
     15 O2         -0.8256   -2.3691    1.9272 O.2       1 <0>        -0.4963
     16 C12        -0.8411   -2.8834    4.5562 C.3       1 <0>         0.1108
     17 C13        -1.3892   -1.5619    5.0987 C.3       1 <0>        -0.0674
     18 H1         -1.7115   -0.9340    4.2682 H         1 <0>         0.1461
     19 C14        -2.5617   -1.8383    6.0041 C.2       1 <0>         0.4960
     20 O3         -2.3821   -2.0181    7.1966 O.co2     1 <0>        -0.6647
     21 O4         -3.6900   -1.8821    5.5442 O.co2     1 <0>        -0.6208
     22 N3         -0.3379   -0.8701    5.8564 N.4       1 <0>        -0.6156
     23 F1          3.9228   -2.4008    4.2606 F         1 <0>        -0.0980
     24 C15         0.7874   -0.8289   -2.3848 C.2       1 <0>         0.5201
     25 O5          0.4868   -0.4011   -3.4903 O.co2     1 <0>        -0.6789
     26 O6          0.9696   -2.0271   -2.2215 O.co2     1 <0>        -0.6806
     27 H2          1.3059    2.5262    1.7178 H         1 <0>         0.1112
     28 H3          0.9255    3.4098   -0.5465 H         1 <0>         0.1168
     29 H4          0.6862    1.8700   -2.4487 H         1 <0>         0.1307
     30 H5          1.4414    0.0995    2.0958 H         1 <0>         0.0922
     31 H6          0.3248   -2.3598   -0.0981 H         1 <0>         0.1313
     32 H7          2.0964   -2.2818   -0.2518 H         1 <0>         0.1280
     33 H8          1.6645   -2.8298    5.4508 H         1 <0>         0.1875
     34 H9         -1.5913   -3.3544    3.9210 H         1 <0>         0.1460
     35 H10        -0.6014   -3.5461    5.3878 H         1 <0>         0.1226
     36 H11        -0.6993    0.0014    6.2142 H         1 <0>         0.4359
     37 H12        -0.0394   -1.4514    6.6252 H         1 <0>         0.4314
     38 H13         0.4472   -0.6850    5.2502 H         1 <0>         0.4105
@<TRIPOS>BOND
     1    1    6 ar
     2    1    2 ar
     3    1   27 1
     4    2    3 ar
     5    2   28 1
     6    3    4 ar
     7    3   29 1
     8    4    5 ar
     9    4   24 1
    10    5    6 ar
    11    5    7 1
    12    6   30 1
    13    7    8 1
    14    7   31 1
    15    7   32 1
    16    8   14 am
    17    8    9 am
    18    9   10 2
    19    9   11 1
    20   11   12 2
    21   11   23 1
    22   12   13 1
    23   12   33 1
    24   13   14 am
    25   13   16 1
    26   14   15 2
    27   16   17 1
    28   16   34 1
    29   16   35 1
    30   17   18 1
    31   17   19 1
    32   17   22 1
    33   19   20 2
    34   19   21 1
    35   22   36 1
    36   22   37 1
    37   22   38 1
    38   24   25 2
    39   24   26 1
@<TRIPOS>MOLECULE
CHEMBL222521
   41    42     0     0     0
SMALL
USER_CHARGES

@<TRIPOS>ATOM
      1 C1          0.3588    1.7242   -0.0775 C.3       1 <0>        -0.0903
      2 C2          0.2578    0.2208   -0.0495 C.2       1 <0>        -0.2230
      3 C3         -0.9494   -0.3834   -0.0223 C.2       1 <0>         0.1038
      4 N1         -1.0230   -1.7495    0.0029 N.am      1 <0>        -0.5545
      5 C4          0.0961   -2.4962    0.0014 C.2       1 <0>         0.6817
      6 O1          0.0077   -3.7087    0.0245 O.2       1 <0>        -0.5065
      7 N2          1.3123   -1.9201   -0.0258 N.am      1 <0>        -0.5474
      8 C5          1.4273   -0.5770   -0.0571 C.2       1 <0>         0.5389
      9 O2          2.5272   -0.0549   -0.0870 O.2       1 <0>        -0.4898
     10 C6          2.5156   -2.7556   -0.0269 C.3       1 <0>         0.1673
     11 C7          2.8691   -3.1256   -1.4443 C.ar      1 <0>        -0.0585
     12 C8          2.1001   -2.6628   -2.4919 C.ar      1 <0>        -0.1366
     13 C9          2.4232   -3.0015   -3.7940 C.ar      1 <0>        -0.1248
     14 C10         3.5186   -3.8060   -4.0554 C.ar      1 <0>        -0.1399
     15 C11         4.2961   -4.2763   -3.0182 C.ar      1 <0>        -0.0767
     16 C12         3.9796   -3.9333   -1.7011 C.ar      1 <0>        -0.1255
     17 C13         4.8108   -4.4268   -0.5864 C.2       1 <0>         0.5203
     18 O3          5.8419   -5.0420   -0.8183 O.co2     1 <0>        -0.6804
     19 O4          4.4685   -4.2206    0.5694 O.co2     1 <0>        -0.6803
     20 C14        -2.3328   -2.4052    0.0324 C.3       1 <0>         0.1106
     21 C15        -2.8084   -2.6590   -1.3995 C.3       1 <0>        -0.0671
     22 H1         -2.1401   -3.3713   -1.8834 H         1 <0>         0.1446
     23 C16        -4.2066   -3.2205   -1.3723 C.2       1 <0>         0.4983
     24 O5         -5.1429   -2.5439   -1.7622 O.co2     1 <0>        -0.6698
     25 O6         -4.4015   -4.3514   -0.9604 O.co2     1 <0>        -0.6218
     26 N3         -2.8026   -1.3954   -2.1486 N.4       1 <0>        -0.6135
     27 H2          1.4083    2.0174   -0.1019 H         1 <0>         0.0852
     28 H3         -0.1459    2.1057   -0.9651 H         1 <0>         0.0710
     29 H4         -0.1131    2.1367    0.8143 H         1 <0>         0.0739
     30 H5         -1.8526    0.2088   -0.0202 H         1 <0>         0.1744
     31 H6          3.3417   -2.2036    0.4213 H         1 <0>         0.1240
     32 H7          2.3292   -3.6619    0.5494 H         1 <0>         0.1279
     33 H8          1.2437   -2.0349   -2.2952 H         1 <0>         0.0920
     34 H9          1.8173   -2.6366   -4.6102 H         1 <0>         0.1100
     35 H10         3.7649   -4.0663   -5.0743 H         1 <0>         0.1161
     36 H11         5.1505   -4.9042   -3.2237 H         1 <0>         0.1300
     37 H12        -2.2521   -3.3544    0.5621 H         1 <0>         0.1448
     38 H13        -3.0491   -1.7630    0.5447 H         1 <0>         0.1160
     39 H14        -1.8664   -1.0195   -2.1668 H         1 <0>         0.4106
     40 H15        -3.1162   -1.5628   -3.0929 H         1 <0>         0.4362
     41 H16        -3.4212   -0.7360   -1.7007 H         1 <0>         0.4291
@<TRIPOS>BOND
     1    1    2 1
     2    1   27 1
     3    1   28 1
     4    1   29 1
     5    2    8 1
     6    2    3 2
     7    3    4 1
     8    3   30 1
     9    4    5 am
    10    4   20 1
    11    5    6 2
    12    5    7 am
    13    7    8 am
    14    7   10 1
    15    8    9 2
    16   10   11 1
    17   10   31 1
    18   10   32 1
    19   11   16 ar
    20   11   12 ar
    21   12   13 ar
    22   12   33 1
    23   13   14 ar
    24   13   34 1
    25   14   15 ar
    26   14   35 1
    27   15   16 ar
    28   15   36 1
    29   16   17 1
    30   17   18 2
    31   17   19 1
    32   20   21 1
    33   20   37 1
    34   20   38 1
    35   21   22 1
    36   21   23 1
    37   21   26 1
    38   23   24 2
    39   23   25 1
    40   26   39 1
    41   26   40 1
    42   26   41 1
@<TRIPOS>MOLECULE
CHEMBL482097
   41    41     0     0     0
SMALL
USER_CHARGES

@<TRIPOS>ATOM
      1 C1          1.2405   -0.9365   -4.7459 C.3       1 <0>        -0.1179
      2 C2          0.2638   -0.2304   -3.8034 C.3       1 <0>        -0.1439
      3 H1          0.5914   -0.3658   -2.7726 H         1 <0>         0.0680
      4 C3         -1.1131   -0.8186   -3.9742 C.2       1 <0>        -0.0585
      5 C4         -1.7250   -1.3883   -2.9415 C.2       1 <0>        -0.1797
      6 C5         -3.0692   -1.9625   -3.1083 C.2       1 <0>        -0.1140
      7 C6         -3.6811   -2.5322   -2.0756 C.2       1 <0>        -0.1150
      8 C7         -2.9540   -2.6964   -0.7659 C.3       1 <0>        -0.1142
      9 C8         -5.1022   -3.0141   -2.2140 C.3       1 <0>        -0.0712
     10 H2         -5.7164   -2.6399   -1.3950 H         1 <0>         0.0983
     11 C9         -5.6943   -2.5899   -3.5816 C.3       1 <0>        -0.0081
     12 N1         -6.7680   -3.5901   -3.8120 N.4       1 <0>        -0.4952
     13 C10        -6.2255   -4.8810   -3.3357 C.3       1 <0>        -0.0337
     14 H3         -5.7765   -5.4245   -4.1670 H         1 <0>         0.1225
     15 C11        -5.1529   -4.5581   -2.2746 C.3       1 <0>        -0.0443
     16 H4         -5.4405   -4.9655   -1.3054 H         1 <0>         0.1046
     17 C12        -3.7955   -5.1174   -2.7053 C.3       1 <0>        -0.1770
     18 C13        -3.8098   -6.6195   -2.5841 C.2       1 <0>         0.4649
     19 O1         -4.8127   -7.1897   -2.1898 O.co2     1 <0>        -0.6318
     20 O2         -2.8184   -7.2644   -2.8804 O.co2     1 <0>        -0.7246
     21 C14        -7.3268   -5.7045   -2.7194 C.2       1 <0>         0.4862
     22 O3         -8.4688   -5.2778   -2.6990 O.co2     1 <0>        -0.7186
     23 O4         -7.0759   -6.7976   -2.2410 O.co2     1 <0>        -0.5690
     24 C15         0.2257    1.2404   -4.1292 C.2       1 <0>         0.5027
     25 O5         -0.8224    1.7627   -4.4687 O.co2     1 <0>        -0.6960
     26 O6          1.2430    1.9082   -4.0534 O.co2     1 <0>        -0.7023
     27 H5          2.2364   -0.5110   -4.6223 H         1 <0>         0.0566
     28 H6          1.2681   -2.0003   -4.5102 H         1 <0>         0.0434
     29 H7          0.9129   -0.8010   -5.7766 H         1 <0>         0.0452
     30 H8         -1.6026   -0.7770   -4.9361 H         1 <0>         0.1015
     31 H9         -1.2356   -1.4299   -1.9797 H         1 <0>         0.1090
     32 H10        -3.5586   -1.9209   -4.0701 H         1 <0>         0.1059
     33 H11        -3.1274   -1.8199   -0.1416 H         1 <0>         0.0615
     34 H12        -3.3229   -3.5855   -0.2545 H         1 <0>         0.0657
     35 H13        -1.8856   -2.8027   -0.9543 H         1 <0>         0.0706
     36 H14        -6.1110   -1.5843   -3.5251 H         1 <0>         0.1228
     37 H15        -4.9376   -2.6506   -4.3638 H         1 <0>         0.1287
     38 H16        -7.5922   -3.3434   -3.2850 H         1 <0>         0.4237
     39 H17        -3.5994   -4.8383   -3.7406 H         1 <0>         0.0480
     40 H18        -3.0142   -4.7086   -2.0646 H         1 <0>         0.0736
     41 H19        -6.9860   -3.6460   -4.7956 H         1 <0>         0.4115
@<TRIPOS>BOND
     1    1    2 1
     2    1   27 1
     3    1   28 1
     4    1   29 1
     5    2    3 1
     6    2    4 1
     7    2   24 1
     8    4    5 2
     9    4   30 1
    10    5    6 1
    11    5   31 1
    12    6    7 2
    13    6   32 1
    14    7    8 1
    15    7    9 1
    16    8   33 1
    17    8   34 1
    18    8   35 1
    19    9   10 1
    20    9   15 1
    21    9   11 1
    22   11   12 1
    23   11   36 1
    24   11   37 1
    25   12   13 1
    26   12   38 1
    27   12   41 1
    28   13   14 1
    29   13   15 1
    30   13   21 1
    31   15   16 1
    32   15   17 1
    33   17   18 1
    34   17   39 1
    35   17   40 1
    36   18   19 2
    37   18   20 1
    38   21   22 2
    39   21   23 1
    40   24   25 2
    41   24   26 1
@<TRIPOS>MOLECULE
CHEMBL492469
   28    29     0     0     0
SMALL
USER_CHARGES

@<TRIPOS>ATOM
      1 C1         -0.1187    1.2515    0.2090 C.3       1 <0>         0.0010
      2 C2          1.3102    1.7778    0.0646 C.2       1 <0>        -0.2424
      3 C3          2.2659    0.8892   -0.2435 C.2       1 <0>         0.1771
      4 N1          3.5698    1.3339   -0.3811 N.am      1 <0>        -0.5417
      5 C4          3.9017    2.6196   -0.2154 C.2       1 <0>         0.6904
      6 O1          5.0598    2.9661   -0.3458 O.2       1 <0>        -0.5317
      7 N2          2.9615    3.5317    0.0942 N.am      1 <0>        -0.6511
      8 H1          3.2065    4.4627    0.2129 H         1 <0>         0.4415
      9 C5          1.6839    3.1479    0.2365 C.2       1 <0>         0.5605
     10 O2          0.8340    3.9740    0.5162 O.2       1 <0>        -0.4868
     11 C6          4.6180    0.3674   -0.7178 C.3       1 <0>         0.0956
     12 C7          5.1185   -0.3082    0.5605 C.3       1 <0>        -0.0665
     13 H2          4.3029   -0.8672    1.0192 H         1 <0>         0.1388
     14 C8          6.2454   -1.2500    0.2228 C.2       1 <0>         0.4931
     15 O3          7.3969   -0.8492    0.2270 O.co2     1 <0>        -0.6512
     16 O4          6.0057   -2.4128   -0.0547 O.co2     1 <0>        -0.6244
     17 N3          5.5996    0.7146    1.4988 N.4       1 <0>        -0.6126
     18 C9          1.8378   -0.5689   -0.4217 C.3       1 <0>        -0.0518
     19 S1          0.1656   -0.5613    0.3461 S.3       1 <0>        -0.2138
     20 H3         -0.5895    1.6423    1.1110 H         1 <0>         0.1267
     21 H4         -0.7130    1.4879   -0.6736 H         1 <0>         0.1178
     22 H5          4.2136   -0.3867   -1.3929 H         1 <0>         0.1393
     23 H6          5.4458    0.8838   -1.2038 H         1 <0>         0.1359
     24 H7          6.2899    1.2918    1.0422 H         1 <0>         0.4407
     25 H8          4.8252    1.2886    1.7968 H         1 <0>         0.4067
     26 H9          1.7814   -0.8330   -1.4777 H         1 <0>         0.1365
     27 H10         2.5096   -1.2411    0.1121 H         1 <0>         0.1355
     28 H11         6.0143    0.2659    2.3018 H         1 <0>         0.4369
@<TRIPOS>BOND
     1    1   19 1
     2    1    2 1
     3    1   20 1
     4    1   21 1
     5    2    9 1
     6    2    3 2
     7    3    4 1
     8    3   18 1
     9    4    5 am
    10    4   11 1
    11    5    6 2
    12    5    7 am
    13    7    8 1
    14    7    9 am
    15    9   10 2
    16   11   12 1
    17   11   22 1
    18   11   23 1
    19   12   13 1
    20   12   14 1
    21   12   17 1
    22   14   15 2
    23   14   16 1
    24   17   24 1
    25   17   25 1
    26   17   28 1
    27   18   19 1
    28   18   26 1
    29   18   27 1
@<TRIPOS>MOLECULE
CHEMBL492469__1
   27    28     0     0     0
SMALL
USER_CHARGES

@<TRIPOS>ATOM
      1 C1         -0.1184    1.2516    0.2147 C.3       1 <0>         0.0168
      2 C2          1.3099    1.7776    0.0686 C.2       1 <0>        -0.2762
      3 C3          2.2653    0.8887   -0.2389 C.2       1 <0>         0.1419
      4 N1          3.5627    1.3384   -0.3760 N.pl3     1 <0>        -0.5414
      5 C4          3.8847    2.6387   -0.2077 C.2       1 <0>         0.6016
      6 O1          5.1667    3.0323   -0.3507 O.3       1 <0>        -0.6729
      7 N2          2.9621    3.5255    0.0936 N.2       1 <0>        -0.6422
      8 C5          1.6901    3.1481    0.2383 C.2       1 <0>         0.5311
      9 O2          0.8410    3.9804    0.5182 O.2       1 <0>        -0.5655
     10 C6          4.6183    0.3799   -0.7125 C.3       1 <0>         0.0941
     11 C7          5.1228   -0.2927    0.5658 C.3       1 <0>        -0.0585
     12 H1          4.3113   -0.8587    1.0232 H         1 <0>         0.1259
     13 C8          6.2578   -1.2250    0.2286 C.2       1 <0>         0.4964
     14 O3          7.4059   -0.8148    0.2345 O.co2     1 <0>        -0.6610
     15 O4          6.0279   -2.3894   -0.0501 O.co2     1 <0>        -0.6425
     16 N3          5.5945    0.7332    1.5055 N.4       1 <0>        -0.6066
     17 C9          1.8385   -0.5692   -0.4151 C.3       1 <0>        -0.0339
     18 S1          0.1663   -0.5612    0.3531 S.3       1 <0>        -0.2731
     19 H2         -0.5884    1.6431    1.1169 H         1 <0>         0.1123
     20 H3         -0.7135    1.4872   -0.6675 H         1 <0>         0.1007
     21 H4          4.2199   -0.3769   -1.3883 H         1 <0>         0.1112
     22 H5          5.4426    0.9026   -1.1976 H         1 <0>         0.1249
     23 H6          6.2816    1.3155    1.0506 H         1 <0>         0.4428
     24 H7          4.8153    1.3015    1.8021 H         1 <0>         0.4149
     25 H8          1.7821   -0.8348   -1.4707 H         1 <0>         0.1170
     26 H9          2.5108   -1.2403    0.1196 H         1 <0>         0.1191
     27 H10         6.0107    0.2873    2.3093 H         1 <0>         0.4229
@<TRIPOS>BOND
     1    1   18 1
     2    1    2 1
     3    1   19 1
     4    1   20 1
     5    2    8 1
     6    2    3 2
     7    3    4 1
     8    3   17 1
     9    4    5 1
    10    4   10 1
    11    5    6 1
    12    5    7 2
    13    7    8 1
    14    8    9 2
    15   10   11 1
    16   10   21 1
    17   10   22 1
    18   11   12 1
    19   11   13 1
    20   11   16 1
    21   13   14 2
    22   13   15 1
    23   16   23 1
    24   16   24 1
    25   16   27 1
    26   17   18 1
    27   17   25 1
    28   17   26 1
@<TRIPOS>MOLECULE
CHEMBL492630
   26    27     0     0     0
SMALL
USER_CHARGES

@<TRIPOS>ATOM
      1 C1         -0.0168    1.3874    0.0097 C.2       1 <0>        -0.2382
      2 C2          1.1478    2.0723    0.0022 C.2       1 <0>        -0.1813
      3 S1          2.3339    0.8812   -0.0155 S.3       1 <0>         0.3785
      4 C3          1.2888   -0.5488   -0.0132 C.2       1 <0>        -0.3521
      5 C4          0.0021   -0.0041    0.0020 C.2       1 <0>         0.1632
      6 N1         -1.0595   -0.9208    0.0068 N.am      1 <0>        -0.5392
      7 C5         -0.8228   -2.2415   -0.0025 C.2       1 <0>         0.7019
      8 O1         -1.7695   -3.0047    0.0025 O.2       1 <0>        -0.5179
      9 N2          0.4196   -2.7539   -0.0175 N.am      1 <0>        -0.6515
     10 H1          0.5461   -3.7156   -0.0242 H         1 <0>         0.4420
     11 C6          1.4938   -1.9324   -0.0226 C.2       1 <0>         0.6024
     12 O2          2.6224   -2.3902   -0.0362 O.2       1 <0>        -0.4927
     13 C7         -2.4403   -0.4314    0.0226 C.3       1 <0>         0.1107
     14 C8         -2.9345   -0.2529   -1.4143 C.3       1 <0>        -0.0661
     15 H2         -2.9785   -1.2243   -1.9068 H         1 <0>         0.1439
     16 C9         -4.3087    0.3655   -1.3997 C.2       1 <0>         0.4960
     17 O3         -4.4652    1.5125   -1.7822 O.co2     1 <0>        -0.6638
     18 O4         -5.2641   -0.2813   -1.0053 O.co2     1 <0>        -0.6206
     19 N3         -2.0103    0.6249   -2.1446 N.4       1 <0>        -0.6135
     20 H3         -0.9578    1.9173    0.0260 H         1 <0>         0.1495
     21 H4          1.2857    3.1434    0.0067 H         1 <0>         0.2115
     22 H5         -3.0752   -1.1519    0.5383 H         1 <0>         0.1473
     23 H6         -2.4806    0.5259    0.5423 H         1 <0>         0.1159
     24 H7         -1.9697    1.5242   -1.6887 H         1 <0>         0.4289
     25 H8         -1.0902    0.2109   -2.1544 H         1 <0>         0.4084
     26 H9         -2.3363    0.7427   -3.0922 H         1 <0>         0.4367
@<TRIPOS>BOND
     1    1    5 1
     2    1    2 2
     3    1   20 1
     4    2    3 1
     5    2   21 1
     6    3    4 1
     7    4   11 1
     8    4    5 2
     9    5    6 1
    10    6    7 am
    11    6   13 1
    12    7    8 2
    13    7    9 am
    14    9   10 1
    15    9   11 am
    16   11   12 2
    17   13   14 1
    18   13   22 1
    19   13   23 1
    20   14   15 1
    21   14   16 1
    22   14   19 1
    23   16   17 2
    24   16   18 1
    25   19   24 1
    26   19   25 1
    27   19   26 1
@<TRIPOS>MOLECULE
CHEMBL492629
   36    37     0     0     0
SMALL
USER_CHARGES

@<TRIPOS>ATOM
      1 C1         -0.0187    1.5258    0.0104 C.3       1 <0>        -0.1432
      2 C2          0.0021   -0.0041    0.0020 C.3       1 <0>        -0.0543
      3 C3         -1.4186   -0.5765    0.2003 C.3       1 <0>        -0.0470
      4 C4         -1.2259   -1.8204    1.0392 C.2       1 <0>        -0.2336
      5 C5         -0.0110   -1.8082    1.6248 C.2       1 <0>         0.1273
      6 N1          0.3593   -2.8535    2.4317 N.am      1 <0>        -0.5366
      7 C6         -0.4728   -3.8875    2.6445 C.2       1 <0>         0.6957
      8 O1         -0.1207   -4.8021    3.3641 O.2       1 <0>        -0.5146
      9 N2         -1.6905   -3.9241    2.0723 N.am      1 <0>        -0.6548
     10 H1         -2.2794   -4.6773    2.2358 H         1 <0>         0.4381
     11 C7         -2.0931   -2.9174    1.2721 C.2       1 <0>         0.5586
     12 O2         -3.1948   -2.9489    0.7540 O.2       1 <0>        -0.4962
     13 C8          1.6783   -2.8433    3.0691 C.3       1 <0>         0.1032
     14 C9          1.5805   -2.1559    4.4325 C.3       1 <0>        -0.0656
     15 H2          0.9458   -2.7470    5.0927 H         1 <0>         0.1439
     16 C10         2.9569   -2.0355    5.0343 C.2       1 <0>         0.4939
     17 O3          3.6349   -1.0468    4.8125 O.co2     1 <0>        -0.6588
     18 O4          3.3925   -2.9269    5.7430 O.co2     1 <0>        -0.6197
     19 N3          1.0004   -0.8167    4.2653 N.4       1 <0>        -0.6180
     20 C11         0.7425   -0.5529    1.2411 C.3       1 <0>        -0.0861
     21 C12         0.6302   -0.5327   -1.2891 C.3       1 <0>        -0.1444
     22 H3          1.0039    1.9031    0.0027 H         1 <0>         0.0670
     23 H4         -0.5459    1.8868   -0.8726 H         1 <0>         0.0707
     24 H5         -0.5289    1.8773    0.9072 H         1 <0>         0.0611
     25 H6         -2.0464    0.1421    0.7271 H         1 <0>         0.0906
     26 H7         -1.8611   -0.8335   -0.7621 H         1 <0>         0.0914
     27 H8          2.0252   -3.8679    3.2029 H         1 <0>         0.1446
     28 H9          2.3825   -2.3007    2.4384 H         1 <0>         0.1212
     29 H10         0.0789   -0.8973    3.8624 H         1 <0>         0.4087
     30 H11         0.9359   -0.3634    5.1644 H         1 <0>         0.4368
     31 H12         1.7754   -0.7933    0.9893 H         1 <0>         0.1082
     32 H13         0.7091    0.1723    2.0542 H         1 <0>         0.0877
     33 H14         1.6579   -0.1775   -1.3650 H         1 <0>         0.0659
     34 H15         0.6224   -1.6226   -1.2772 H         1 <0>         0.0583
     35 H16         0.0578   -0.1746   -2.1448 H         1 <0>         0.0692
     36 H17         1.5880   -0.2696    3.6542 H         1 <0>         0.4304
@<TRIPOS>BOND
     1    1    2 1
     2    1   22 1
     3    1   23 1
     4    1   24 1
     5    2   20 1
     6    2    3 1
     7    2   21 1
     8    3    4 1
     9    3   25 1
    10    3   26 1
    11    4   11 1
    12    4    5 2
    13    5    6 1
    14    5   20 1
    15    6    7 am
    16    6   13 1
    17    7    8 2
    18    7    9 am
    19    9   10 1
    20    9   11 am
    21   11   12 2
    22   13   14 1
    23   13   27 1
    24   13   28 1
    25   14   15 1
    26   14   16 1
    27   14   19 1
    28   16   17 2
    29   16   18 1
    30   19   29 1
    31   19   30 1
    32   19   36 1
    33   20   31 1
    34   20   32 1
    35   21   33 1
    36   21   34 1
    37   21   35 1
@<TRIPOS>MOLECULE
CHEMBL14861
   40    43     0     0     0
SMALL
USER_CHARGES

@<TRIPOS>ATOM
      1 C1          1.0758    1.2859   -0.5693 C.3       1 <0>         0.1064
      2 N1          0.5667   -0.0393   -0.2074 N.am      1 <0>        -0.7486
      3 C2          1.1685   -0.7492    0.7674 C.2       1 <0>         0.7008
      4 O1          2.1339   -0.2899    1.3465 O.2       1 <0>        -0.5664
      5 N2          0.7001   -1.9683    1.1004 N.am      1 <0>        -0.6820
      6 C3          1.3747   -2.7408    2.0512 C.ar      1 <0>         0.1655
      7 C4          1.9901   -2.1268    3.1361 C.ar      1 <0>        -0.1181
      8 C5          2.6561   -2.8825    4.0759 C.ar      1 <0>        -0.0760
      9 C6          2.7137   -4.2729    3.9398 C.ar      1 <0>        -0.0269
     10 C7          2.0933   -4.8807    2.8490 C.ar      1 <0>        -0.0207
     11 C8          1.4251   -4.1241    1.9148 C.ar      1 <0>        -0.1220
     12 C9          2.3327   -6.3630    2.9881 C.3       1 <0>         0.0318
     13 C10         3.1428   -6.5288    4.2550 C.2       1 <0>         0.0231
     14 C11         3.3490   -5.3121    4.7841 C.2       1 <0>         0.1859
     15 N3          4.0748   -5.1658    5.9668 N.am      1 <0>        -0.6213
     16 C12         4.5822   -6.2416    6.6002 C.2       1 <0>         0.6032
     17 C13         4.3569   -7.5735    6.0215 C.2       1 <0>         0.1298
     18 N4          3.6381   -7.6689    4.8599 N.pl3     1 <0>        -0.3275
     19 C14         3.5733   -8.9874    4.5393 C.2       1 <0>        -0.0306
     20 C15         4.2460   -9.6654    5.5031 C.2       1 <0>        -0.0156
     21 N5          4.7119   -8.7875    6.3895 N.2       1 <0>        -0.4227
     22 O2          5.2157   -6.1125    7.6320 O.2       1 <0>        -0.5094
     23 C16         3.1199   -6.8865    1.7851 C.3       1 <0>        -0.1769
     24 C17         4.4845   -6.2475    1.7611 C.2       1 <0>         0.4902
     25 O3          4.7616   -5.3714    2.5624 O.co2     1 <0>        -0.6764
     26 O4          5.3115   -6.6067    0.9403 O.co2     1 <0>        -0.7032
     27 H1          2.1087    1.1987   -0.9064 H         1 <0>         0.0603
     28 H2          0.4660    1.7029   -1.3708 H         1 <0>         0.0754
     29 H3          1.0314    1.9420    0.2999 H         1 <0>         0.0591
     30 H4         -0.2035   -0.4058   -0.6694 H         1 <0>         0.3978
     31 H5         -0.1048   -2.3099    0.6806 H         1 <0>         0.4050
     32 H6          1.9463   -1.0529    3.2423 H         1 <0>         0.1412
     33 H7          3.1335   -2.4014    4.9168 H         1 <0>         0.1235
     34 H8          0.9436   -4.6028    1.0749 H         1 <0>         0.1267
     35 H9          1.3833   -6.8911    3.0764 H         1 <0>         0.0950
     36 H10         3.0795   -9.4154    3.6794 H         1 <0>         0.1839
     37 H11         4.3816  -10.7361    5.5440 H         1 <0>         0.1850
     38 H12         3.2266   -7.9684    1.8636 H         1 <0>         0.0633
     39 H13         2.5869   -6.6397    0.8668 H         1 <0>         0.0717
     40 H14         4.2158   -4.2803    6.3369 H         1 <0>         0.4195
@<TRIPOS>BOND
     1    1    2 1
     2    1   27 1
     3    1   28 1
     4    1   29 1
     5    2    3 am
     6    2   30 1
     7    3    4 2
     8    3    5 am
     9    5    6 1
    10    5   31 1
    11    6   11 ar
    12    6    7 ar
    13    7    8 ar
    14    7   32 1
    15    8    9 ar
    16    8   33 1
    17    9   14 1
    18    9   10 ar
    19   10   11 ar
    20   10   12 1
    21   11   34 1
    22   12   13 1
    23   12   23 1
    24   12   35 1
    25   13   18 1
    26   13   14 2
    27   14   15 1
    28   15   16 am
    29   15   40 1
    30   16   17 1
    31   16   22 2
    32   17   21 2
    33   17   18 1
    34   18   19 1
    35   19   20 2
    36   19   36 1
    37   20   21 1
    38   20   37 1
    39   23   24 1
    40   23   38 1
    41   23   39 1
    42   24   25 2
    43   24   26 1
@<TRIPOS>MOLECULE
CHEMBL14861__1
   40    43     0     0     0
SMALL
USER_CHARGES

@<TRIPOS>ATOM
      1 C1          0.9231    1.1797   -0.7854 C.3       1 <0>         0.1070
      2 N1          0.4405   -0.1457   -0.3893 N.am      1 <0>        -0.7490
      3 C2          1.0511   -0.8146    0.6088 C.2       1 <0>         0.7021
      4 O1          2.0024   -0.3181    1.1805 O.2       1 <0>        -0.5719
      5 N2          0.6071   -2.0338    0.9732 N.am      1 <0>        -0.6809
      6 C3          1.2970   -2.7681    1.9431 C.ar      1 <0>         0.1660
      7 C4          1.9020   -2.1141    3.0103 C.ar      1 <0>        -0.1176
      8 C5          2.5830   -2.8321    3.9688 C.ar      1 <0>        -0.0757
      9 C6          2.6665   -4.2243    3.8694 C.ar      1 <0>        -0.0258
     10 C7          2.0564   -4.8723    2.7961 C.ar      1 <0>        -0.0172
     11 C8          1.3731   -4.1533    1.8432 C.ar      1 <0>        -0.1211
     12 C9          2.3237   -6.3456    2.9740 C.3       1 <0>         0.0319
     13 C10         3.1381   -6.4627    4.2437 C.2       1 <0>         0.0170
     14 C11         3.3220   -5.2287    4.7400 C.2       1 <0>         0.1875
     15 N3          4.0462   -5.0376    5.9173 N.am      1 <0>        -0.6219
     16 C12         4.5744   -6.0865    6.5781 C.2       1 <0>         0.6027
     17 C13         4.3734   -7.4373    6.0353 C.2       1 <0>         0.1292
     18 N4          3.6552   -7.5768    4.8777 N.pl3     1 <0>        -0.3280
     19 C14         3.6148   -8.9044    4.5922 C.2       1 <0>        -0.0320
     20 C15         4.3011   -9.5439    5.5727 C.2       1 <0>        -0.0152
     21 N5          4.7514   -8.6342    6.4348 N.2       1 <0>        -0.4223
     22 O2          5.2064   -5.9183    7.6052 O.2       1 <0>        -0.5084
     23 C16         1.0052   -7.1081    3.1197 C.3       1 <0>        -0.1767
     24 C17         0.2041   -6.5151    4.2500 C.2       1 <0>         0.4910
     25 O3          0.6854   -5.6337    4.9414 O.co2     1 <0>        -0.6765
     26 O4         -0.9252   -6.9167    4.4731 O.co2     1 <0>        -0.7034
     27 H1          1.9599    1.1057   -1.1137 H         1 <0>         0.0591
     28 H2          0.3097    1.5605   -1.6021 H         1 <0>         0.0754
     29 H3          0.8587    1.8588    0.0647 H         1 <0>         0.0593
     30 H4         -0.3184   -0.5417   -0.8454 H         1 <0>         0.3988
     31 H5         -0.1909   -2.4020    0.5627 H         1 <0>         0.4069
     32 H6          1.8382   -1.0388    3.0881 H         1 <0>         0.1414
     33 H7          3.0522   -2.3201    4.7960 H         1 <0>         0.1229
     34 H8          0.8998   -4.6630    1.0170 H         1 <0>         0.1262
     35 H9          2.8904   -6.7306    2.1263 H         1 <0>         0.0947
     36 H10         3.1281   -9.3641    3.7448 H         1 <0>         0.1844
     37 H11         4.4567  -10.6104    5.6417 H         1 <0>         0.1852
     38 H12         0.4371   -7.0318    2.1926 H         1 <0>         0.0713
     39 H13         1.2135   -8.1566    3.3329 H         1 <0>         0.0634
     40 H14         4.1710   -4.1401    6.2636 H         1 <0>         0.4201
@<TRIPOS>BOND
     1    1    2 1
     2    1   27 1
     3    1   28 1
     4    1   29 1
     5    2    3 am
     6    2   30 1
     7    3    4 2
     8    3    5 am
     9    5    6 1
    10    5   31 1
    11    6   11 ar
    12    6    7 ar
    13    7    8 ar
    14    7   32 1
    15    8    9 ar
    16    8   33 1
    17    9   14 1
    18    9   10 ar
    19   10   11 ar
    20   10   12 1
    21   11   34 1
    22   12   13 1
    23   12   23 1
    24   12   35 1
    25   13   18 1
    26   13   14 2
    27   14   15 1
    28   15   16 am
    29   15   40 1
    30   16   17 1
    31   16   22 2
    32   17   21 2
    33   17   18 1
    34   18   19 1
    35   19   20 2
    36   19   36 1
    37   20   21 1
    38   20   37 1
    39   23   24 1
    40   23   38 1
    41   23   39 1
    42   24   25 2
    43   24   26 1
@<TRIPOS>MOLECULE
CHEMBL508818
   29    30     0     0     0
SMALL
USER_CHARGES

@<TRIPOS>ATOM
      1 C1         -0.0166    1.3749    0.0096 C.ar      1 <0>        -0.1470
      2 C2          1.1694    2.0931    0.0021 C.ar      1 <0>        -0.0317
      3 C3          2.3865    1.4416   -0.0130 C.ar      1 <0>        -0.2052
      4 C4          2.4252    0.0557   -0.0208 C.ar      1 <0>         0.1770
      5 C5          1.2234   -0.6735   -0.0133 C.ar      1 <0>        -0.1903
      6 C6          0.0021   -0.0041    0.0020 C.ar      1 <0>        -0.0025
      7 C7          1.3009   -2.1453   -0.0214 C.2       1 <0>         0.5633
      8 O1          0.2913   -2.8230   -0.0158 O.2       1 <0>        -0.4806
      9 N1          2.5223   -2.7219   -0.0358 N.am      1 <0>        -0.6592
     10 H1          2.5915   -3.6894   -0.0416 H         1 <0>         0.4381
     11 C8          3.6419   -1.9818   -0.0425 C.2       1 <0>         0.7006
     12 O2          4.7159   -2.5515   -0.0555 O.2       1 <0>        -0.5165
     13 N2          3.6268   -0.6377   -0.0356 N.am      1 <0>        -0.5564
     14 C9          4.8912    0.1021   -0.0437 C.3       1 <0>         0.1102
     15 C10         5.3449    0.3523    1.3959 C.3       1 <0>        -0.0666
     16 H2          5.5709   -0.5996    1.8763 H         1 <0>         0.1437
     17 C11         6.5787    1.2177    1.3905 C.2       1 <0>         0.4959
     18 O3          6.5176    2.3688    1.7874 O.co2     1 <0>        -0.6633
     19 O4          7.6379    0.7666    0.9892 O.co2     1 <0>        -0.6206
     20 N3          4.2733    1.0321    2.1359 N.4       1 <0>        -0.6147
     21 H3         -0.9610    1.8986    0.0260 H         1 <0>         0.1450
     22 H4          1.1408    3.1727    0.0079 H         1 <0>         0.1473
     23 H5          3.3052    2.0094   -0.0191 H         1 <0>         0.1426
     24 H6         -0.9234   -0.5607    0.0079 H         1 <0>         0.1516
     25 H7          5.6494   -0.4800   -0.5676 H         1 <0>         0.1474
     26 H8          4.7506    1.0563   -0.5514 H         1 <0>         0.1180
     27 H9          3.4472    0.4527    2.1395 H         1 <0>         0.4089
     28 H10         4.5725    1.1971    3.0852 H         1 <0>         0.4360
     29 H11         4.0641    1.9133    1.6911 H         1 <0>         0.4290
@<TRIPOS>BOND
     1    1    6 ar
     2    1    2 ar
     3    1   21 1
     4    2    3 ar
     5    2   22 1
     6    3    4 ar
     7    3   23 1
     8    4   13 1
     9    4    5 ar
    10    5    6 ar
    11    5    7 1
    12    6   24 1
    13    7    8 2
    14    7    9 am
    15    9   10 1
    16    9   11 am
    17   11   12 2
    18   11   13 am
    19   13   14 1
    20   14   15 1
    21   14   25 1
    22   14   26 1
    23   15   16 1
    24   15   17 1
    25   15   20 1
    26   17   18 2
    27   17   19 1
    28   20   27 1
    29   20   28 1
    30   20   29 1
@<TRIPOS>MOLECULE
CHEMBL64684
   26    28     0     0     0
SMALL
USER_CHARGES

@<TRIPOS>ATOM
      1 C1          0.6715    1.2794   -1.6137 C.2       1 <0>        -0.0930
      2 C2          1.5496    2.0340   -0.7963 C.ar      1 <0>        -0.0382
      3 C3          1.2511    3.3677   -0.4794 C.ar      1 <0>        -0.0002
      4 C4          2.1025    4.0861    0.3088 C.ar      1 <0>        -0.0276
      5 C5          3.2653    3.5086    0.8015 C.ar      1 <0>         0.0235
      6 C6          3.5799    2.2008    0.5042 C.ar      1 <0>        -0.0828
      7 C7          2.7272    1.4463   -0.2977 C.ar      1 <0>         0.2070
      8 N1          3.0380    0.1363   -0.5976 N.am      1 <0>        -0.6225
      9 C8          2.2250   -0.6069   -1.3715 C.2       1 <0>         0.5328
     10 C9          0.9887   -0.0296   -1.9093 C.2       1 <0>         0.0357
     11 C10         0.0931   -0.8415   -2.7578 C.2       1 <0>         0.0614
     12 N2          0.2735   -2.1133   -3.1227 N.2       1 <0>        -0.3216
     13 N3         -0.7298   -2.4507   -3.8587 N.2       1 <0>        -0.1810
     14 N4         -1.5303   -1.4495   -3.9717 N.2       1 <0>        -0.1770
     15 N5         -1.0598   -0.4504   -3.3065 N.2       1 <0>        -0.3498
     16 O1          2.5168   -1.7619   -1.6255 O.2       1 <0>        -0.4539
     17 N6          4.1755    4.3059    1.6539 N.pl3     1 <0>         0.0257
     18 O2          5.3729    4.1842    1.5388 O.2       1 <0>        -0.1271
     19 O3          3.7217    5.0790    2.4651 O.3       1 <0>        -0.1259
     20 N7          1.7841    5.4930    0.6409 N.pl3     1 <0>         0.0284
     21 O4          0.6412    5.8175    0.8648 O.2       1 <0>        -0.1250
     22 O5          2.6670    6.3176    0.6882 O.3       1 <0>        -0.1343
     23 H1         -0.2361    1.7223   -1.9964 H         1 <0>         0.1663
     24 H2          0.3493    3.8251   -0.8589 H         1 <0>         0.1806
     25 H3          4.4869    1.7613    0.8922 H         1 <0>         0.1750
     26 H4          3.8533   -0.2545   -0.2463 H         1 <0>         0.4235
@<TRIPOS>BOND
     1    1   10 2
     2    1    2 1
     3    1   23 1
     4    2    7 ar
     5    2    3 ar
     6    3    4 ar
     7    3   24 1
     8    4    5 ar
     9    4   20 1
    10    5    6 ar
    11    5   17 1
    12    6    7 ar
    13    6   25 1
    14    7    8 1
    15    8    9 am
    16    8   26 1
    17    9   10 1
    18    9   16 2
    19   10   11 1
    20   11   12 2
    21   11   15 1
    22   12   13 1
    23   13   14 2
    24   14   15 1
    25   17   18 2
    26   17   19 1
    27   20   21 2
    28   20   22 1
@<TRIPOS>MOLECULE
CHEMBL64684__1
   25    27     0     0     0
SMALL
USER_CHARGES

@<TRIPOS>ATOM
      1 C1          3.2594    2.2232    2.5892 C.ar      1 <0>        -0.0729
      2 C2          2.8538    2.4678    1.2644 C.ar      1 <0>        -0.1564
      3 C3          3.6251    3.2671    0.4043 C.ar      1 <0>         0.0262
      4 C4          3.2038    3.4835   -0.8724 C.ar      1 <0>        -0.1093
      5 C5          2.0165    2.9223   -1.3371 C.ar      1 <0>         0.0144
      6 C6          1.2450    2.1429   -0.5304 C.ar      1 <0>        -0.0504
      7 C7          1.6460    1.8956    0.7935 C.ar      1 <0>         0.2294
      8 N1          0.9024    1.1312    1.6025 N.ar      1 <0>        -0.5852
      9 C8          1.2609    0.8885    2.8425 C.ar      1 <0>         0.4497
     10 C9          2.4502    1.4248    3.3825 C.ar      1 <0>        -0.0216
     11 C10         2.8302    1.1357    4.7820 C.2       1 <0>         0.0910
     12 N2          2.1523    0.3885    5.6557 N.2       1 <0>        -0.3150
     13 N3          2.8167    0.3860    6.7605 N.2       1 <0>        -0.2120
     14 N4          3.8797    1.0975    6.6188 N.2       1 <0>        -0.2069
     15 N5          3.9215    1.5660    5.4184 N.2       1 <0>        -0.3790
     16 O1          0.4722    0.1085    3.6203 O.3       1 <0>        -0.5921
     17 N6          1.5865    3.1781   -2.7302 N.pl3     1 <0>         0.0367
     18 O2          0.4161    3.3505   -2.9796 O.2       1 <0>        -0.1542
     19 O3          2.4056    3.2145   -3.6187 O.3       1 <0>        -0.1527
     20 N7          4.0175    4.3259   -1.7777 N.pl3     1 <0>         0.0517
     21 O4          5.2241    4.2572   -1.7455 O.2       1 <0>        -0.1699
     22 O5          3.4754    5.0826   -2.5492 O.3       1 <0>        -0.1705
     23 H1          4.1770    2.6418    2.9756 H         1 <0>         0.1385
     24 H2          4.5470    3.7079    0.7538 H         1 <0>         0.1515
     25 H3          0.3271    1.7160   -0.9069 H         1 <0>         0.1591
@<TRIPOS>BOND
     1    1   10 ar
     2    1    2 ar
     3    1   23 1
     4    2    7 ar
     5    2    3 ar
     6    3    4 ar
     7    3   24 1
     8    4    5 ar
     9    4   20 1
    10    5    6 ar
    11    5   17 1
    12    6    7 ar
    13    6   25 1
    14    7    8 ar
    15    8    9 ar
    16    9   10 ar
    17    9   16 1
    18   10   11 1
    19   11   12 2
    20   11   15 1
    21   12   13 1
    22   13   14 2
    23   14   15 1
    24   17   18 2
    25   17   19 1
    26   20   21 2
    27   20   22 1
@<TRIPOS>MOLECULE
CHEMBL193087
   33    34     0     0     0
SMALL
USER_CHARGES

@<TRIPOS>ATOM
      1 C1         -0.0187    1.5258    0.0104 C.3       1 <0>        -0.1681
      2 C2          0.0021   -0.0041    0.0020 C.3       1 <0>         0.1511
      3 C3          0.7421   -0.5109    1.2415 C.3       1 <0>        -0.1669
      4 N1         -1.3723   -0.5112    0.0124 N.pl3     1 <0>        -0.1315
      5 N2         -1.8965   -1.2616   -0.8947 N.2       1 <0>        -0.2827
      6 C4         -3.1431   -1.5114   -0.5407 C.2       1 <0>         0.2188
      7 N3         -3.3458   -0.8757    0.6235 N.2       1 <0>        -0.2093
      8 N4         -2.2434   -0.2813    0.9318 N.2       1 <0>        -0.0403
      9 C5         -4.1257   -2.3318   -1.2831 C.2       1 <0>         0.1574
     10 C6         -5.4067   -2.5755   -0.8980 C.2       1 <0>        -0.1983
     11 C7         -6.0093   -3.3943   -1.8705 C.2       1 <0>         0.5357
     12 N5         -5.0873   -3.6329   -2.8261 N.am      1 <0>        -0.5687
     13 O1         -3.9017   -2.9542   -2.4518 O.3       1 <0>        -0.0383
     14 O2         -7.1560   -3.8127   -1.8526 O.2       1 <0>        -0.4954
     15 C8         -6.0667   -2.0584    0.3542 C.3       1 <0>        -0.0733
     16 C9         -6.8331   -0.7736    0.0336 C.3       1 <0>         0.0394
     17 C10        -7.3904   -0.1902    1.3064 C.2       1 <0>         0.5036
     18 O3         -6.6394    0.3004    2.1321 O.co2     1 <0>        -0.6940
     19 O4         -8.5923   -0.2088    1.5104 O.co2     1 <0>        -0.6856
     20 N6         -7.9349   -1.0780   -0.8891 N.3       1 <0>        -0.8192
     21 H1          1.0039    1.9031    0.0027 H         1 <0>         0.0924
     22 H2         -0.5459    1.8868   -0.8726 H         1 <0>         0.0689
     23 H3         -0.5289    1.8773    0.9072 H         1 <0>         0.0820
     24 H4          0.5123   -0.3556   -0.8948 H         1 <0>         0.1245
     25 H5          0.2319   -0.1594    2.1383 H         1 <0>         0.0813
     26 H6          0.7568   -1.6008    1.2356 H         1 <0>         0.0677
     27 H7          1.7647   -0.1336    1.2338 H         1 <0>         0.0924
     28 H8         -6.7589   -2.8086    0.7364 H         1 <0>         0.0759
     29 H9         -5.3058   -1.8495    1.1063 H         1 <0>         0.1037
     30 H10        -6.1584   -0.0544   -0.4309 H         1 <0>         0.0651
     31 H11        -7.5835   -1.4104   -1.7747 H         1 <0>         0.3098
     32 H12        -8.5747   -1.7432   -0.4813 H         1 <0>         0.3444
     33 H13        -5.2142   -4.1683   -3.6250 H         1 <0>         0.4571
@<TRIPOS>BOND
     1    1    2 1
     2    1   21 1
     3    1   22 1
     4    1   23 1
     5    2    3 1
     6    2    4 1
     7    2   24 1
     8    3   25 1
     9    3   26 1
    10    3   27 1
    11    4    8 1
    12    4    5 1
    13    5    6 2
    14    6    7 1
    15    6    9 1
    16    7    8 2
    17    9   10 2
    18    9   13 1
    19   10   11 1
    20   10   15 1
    21   11   12 am
    22   11   14 2
    23   12   13 1
    24   12   33 1
    25   15   16 1
    26   15   28 1
    27   15   29 1
    28   16   17 1
    29   16   20 1
    30   16   30 1
    31   17   18 2
    32   17   19 1
    33   20   31 1
    34   20   32 1
@<TRIPOS>MOLECULE
CHEMBL193087__1
   33    34     0     0     0
SMALL
USER_CHARGES

@<TRIPOS>ATOM
      1 C1         -0.0187    1.5258    0.0104 C.3       1 <0>        -0.1673
      2 C2          0.0021   -0.0041    0.0020 C.3       1 <0>         0.1521
      3 C3          0.7421   -0.5109    1.2415 C.3       1 <0>        -0.1666
      4 N1         -1.3723   -0.5112    0.0124 N.pl3     1 <0>        -0.1324
      5 N2         -1.8965   -1.2616   -0.8947 N.2       1 <0>        -0.2878
      6 C4         -3.1431   -1.5114   -0.5407 C.2       1 <0>         0.2416
      7 N3         -3.3458   -0.8757    0.6235 N.2       1 <0>        -0.2177
      8 N4         -2.2434   -0.2813    0.9318 N.2       1 <0>        -0.0477
      9 C5         -4.1257   -2.3318   -1.2831 C.2       1 <0>         0.1598
     10 C6         -5.4067   -2.5755   -0.8980 C.2       1 <0>        -0.1761
     11 C7         -6.0093   -3.3943   -1.8705 C.2       1 <0>         0.5368
     12 N5         -5.0873   -3.6329   -2.8261 N.am      1 <0>        -0.5715
     13 O1         -3.9017   -2.9542   -2.4518 O.3       1 <0>        -0.0421
     14 O2         -7.1560   -3.8127   -1.8526 O.2       1 <0>        -0.4985
     15 C8         -6.0667   -2.0584    0.3542 C.3       1 <0>        -0.0302
     16 C9         -6.8331   -0.7736    0.0336 C.3       1 <0>         0.0330
     17 C10        -7.5926   -0.3237    1.2549 C.2       1 <0>         0.4691
     18 O3         -7.0676    0.4313    2.0554 O.co2     1 <0>        -0.6947
     19 O4         -8.7321   -0.7146    1.4425 O.co2     1 <0>        -0.6984
     20 N6         -5.8854    0.2747   -0.3675 N.3       1 <0>        -0.8338
     21 H1          1.0039    1.9031    0.0027 H         1 <0>         0.0910
     22 H2         -0.5459    1.8868   -0.8726 H         1 <0>         0.0691
     23 H3         -0.5289    1.8773    0.9072 H         1 <0>         0.0809
     24 H4          0.5123   -0.3556   -0.8948 H         1 <0>         0.1236
     25 H5          0.2319   -0.1594    2.1383 H         1 <0>         0.0803
     26 H6          0.7568   -1.6008    1.2356 H         1 <0>         0.0675
     27 H7          1.7647   -0.1336    1.2338 H         1 <0>         0.0912
     28 H8         -6.7589   -2.8086    0.7364 H         1 <0>         0.0824
     29 H9         -5.3058   -1.8495    1.1063 H         1 <0>         0.0923
     30 H10        -7.5329   -0.9616   -0.7807 H         1 <0>         0.0699
     31 H11        -6.3712    1.1139   -0.6464 H         1 <0>         0.3253
     32 H12        -5.2255    0.4674    0.3711 H         1 <0>         0.3440
     33 H13        -5.2142   -4.1683   -3.6250 H         1 <0>         0.4550
@<TRIPOS>BOND
     1    1    2 1
     2    1   21 1
     3    1   22 1
     4    1   23 1
     5    2    3 1
     6    2    4 1
     7    2   24 1
     8    3   25 1
     9    3   26 1
    10    3   27 1
    11    4    8 1
    12    4    5 1
    13    5    6 2
    14    6    7 1
    15    6    9 1
    16    7    8 2
    17    9   10 2
    18    9   13 1
    19   10   11 1
    20   10   15 1
    21   11   12 am
    22   11   14 2
    23   12   13 1
    24   12   33 1
    25   15   16 1
    26   15   28 1
    27   15   29 1
    28   16   17 1
    29   16   20 1
    30   16   30 1
    31   17   18 2
    32   17   19 1
    33   20   31 1
    34   20   32 1
@<TRIPOS>MOLECULE
CHEMBL299291
   32    32     0     0     0
SMALL
USER_CHARGES

@<TRIPOS>ATOM
      1 C1         -0.4352    1.2856    0.0926 C.3       1 <0>        -0.1208
      2 C2          1.0331    1.7052    0.3517 C.3       1 <0>        -0.1266
      3 C3          1.8291    0.7550   -0.5771 C.3       1 <0>        -0.1135
      4 C4          1.0708   -0.5853   -0.4867 C.3       1 <0>        -0.0855
      5 C5         -0.3689   -0.2480   -0.0609 C.3       1 <0>        -0.1315
      6 C6          1.0653   -1.2670   -1.8307 C.2       1 <0>        -0.1491
      7 C7          1.7166   -2.4175   -1.9968 C.2       1 <0>        -0.1813
      8 C8          2.5115   -3.0045   -0.8590 C.3       1 <0>        -0.0770
      9 C9          1.6600   -4.0412   -0.1234 C.3       1 <0>        -0.0385
     10 H1          1.3016   -4.7867   -0.8333 H         1 <0>         0.1393
     11 C10         2.4934   -4.7157    0.9355 C.2       1 <0>         0.4966
     12 O1          2.2722   -4.4995    2.1149 O.co2     1 <0>        -0.6892
     13 O2          3.3890   -5.4776    0.6130 O.co2     1 <0>        -0.6333
     14 N1          0.5131   -3.3743    0.5072 N.4       1 <0>        -0.6138
     15 C11         1.6598   -3.1129   -3.2874 C.2       1 <0>         0.5092
     16 O3          1.0143   -2.6362   -4.2113 O.co2     1 <0>        -0.6901
     17 O4          2.2579   -4.1695   -3.4400 O.co2     1 <0>        -0.6763
     18 H2         -1.0648    1.5573    0.9398 H         1 <0>         0.0639
     19 H3         -0.8072    1.7449   -0.8232 H         1 <0>         0.0682
     20 H4          1.1932    2.7456    0.0688 H         1 <0>         0.0660
     21 H5          1.3033    1.5415    1.3949 H         1 <0>         0.0660
     22 H6          1.8227    1.1287   -1.6010 H         1 <0>         0.0733
     23 H7          2.8520    0.6396   -0.2185 H         1 <0>         0.0672
     24 H8          1.5389   -1.2297    0.2574 H         1 <0>         0.0673
     25 H9         -0.5994   -0.7287    0.8898 H         1 <0>         0.0572
     26 H10        -1.0715   -0.5773   -0.8264 H         1 <0>         0.0749
     27 H11         0.5336   -0.8229   -2.6593 H         1 <0>         0.1280
     28 H12         3.4085   -3.4836   -1.2516 H         1 <0>         0.1176
     29 H13         2.7962   -2.2114   -0.1676 H         1 <0>         0.0721
     30 H14        -0.0450   -2.9226   -0.2018 H         1 <0>         0.4136
     31 H15        -0.0485   -4.0579    0.9923 H         1 <0>         0.4239
     32 H16         0.8449   -2.6841    1.1643 H         1 <0>         0.4219
@<TRIPOS>BOND
     1    1    5 1
     2    1    2 1
     3    1   18 1
     4    1   19 1
     5    2    3 1
     6    2   20 1
     7    2   21 1
     8    3    4 1
     9    3   22 1
    10    3   23 1
    11    4    5 1
    12    4    6 1
    13    4   24 1
    14    5   25 1
    15    5   26 1
    16    6    7 2
    17    6   27 1
    18    7    8 1
    19    7   15 1
    20    8    9 1
    21    8   28 1
    22    8   29 1
    23    9   10 1
    24    9   11 1
    25    9   14 1
    26   11   12 2
    27   11   13 1
    28   14   30 1
    29   14   31 1
    30   14   32 1
    31   15   16 2
    32   15   17 1
@<TRIPOS>MOLECULE
CHEMBL13378
   22    22     0     0     0
SMALL
USER_CHARGES

@<TRIPOS>ATOM
      1 C1         -0.0127    1.0858    0.0080 C.3       1 <0>        -0.0874
      2 C2         -0.7416    1.5850   -1.2129 C.2       1 <0>         0.0641
      3 C3         -2.0612    1.8307   -1.2988 C.2       1 <0>        -0.3440
      4 C4         -2.3386    2.2830   -2.6073 C.2       1 <0>         0.3549
      5 O1         -3.5575    2.6352   -3.0888 O.3       1 <0>        -0.7254
      6 N1         -1.2135    2.3030   -3.2729 N.2       1 <0>        -0.4447
      7 O2         -0.1856    1.8672   -2.4015 O.3       1 <0>        -0.1267
      8 C5         -3.0682    1.6533   -0.1918 C.3       1 <0>        -0.0314
      9 C6         -3.1833    2.9537    0.6062 C.3       1 <0>        -0.0372
     10 C7         -4.0965    2.7400    1.7858 C.2       1 <0>         0.4949
     11 O3         -3.7366    2.0393    2.7163 O.co2     1 <0>        -0.6492
     12 O4         -5.1953    3.2679    1.8095 O.co2     1 <0>        -0.6804
     13 N2         -3.7338    4.0092   -0.2545 N.4       1 <0>        -0.6038
     14 H1          0.0021   -0.0041    0.0020 H         1 <0>         0.0830
     15 H2          1.0099    1.4631    0.0003 H         1 <0>         0.0748
     16 H3         -0.5229    1.4373    0.9048 H         1 <0>         0.0861
     17 H4         -4.0387    1.4028   -0.6201 H         1 <0>         0.0831
     18 H5         -2.7441    0.8491    0.4688 H         1 <0>         0.0965
     19 H6         -2.1962    3.2513    0.9601 H         1 <0>         0.1205
     20 H7         -3.8097    4.8668    0.2718 H         1 <0>         0.4166
     21 H8         -3.1223    4.1522   -1.0442 H         1 <0>         0.4226
     22 H9         -4.6474    3.7337   -0.5821 H         1 <0>         0.4331
@<TRIPOS>BOND
     1    1   14 1
     2    1   15 1
     3    1   16 1
     4    1    2 1
     5    2    3 2
     6    2    7 1
     7    3    4 1
     8    3    8 1
     9    4    6 2
    10    4    5 1
    11    6    7 1
    12    8    9 1
    13    8   17 1
    14    8   18 1
    15    9   10 1
    16    9   13 1
    17    9   19 1
    18   10   11 2
    19   10   12 1
    20   13   20 1
    21   13   21 1
    22   13   22 1
@<TRIPOS>MOLECULE
CHEMBL13378__1
   22    22     0     0     0
SMALL
USER_CHARGES

@<TRIPOS>ATOM
      1 C1         -0.0127    1.0858    0.0080 C.3       1 <0>        -0.0843
      2 C2         -0.7416    1.5850   -1.2129 C.2       1 <0>         0.0723
      3 C3         -2.0637    1.8281   -1.2889 C.2       1 <0>        -0.2467
      4 C4         -2.3566    2.2813   -2.5922 C.2       1 <0>         0.5443
      5 O1         -3.4555    2.5967   -3.0193 O.2       1 <0>        -0.5006
      6 N1         -1.1945    2.3016   -3.2786 N.am      1 <0>        -0.5885
      7 O2         -0.1781    1.8636   -2.3940 O.3       1 <0>        -0.0622
      8 C5         -3.0601    1.6465   -0.1730 C.3       1 <0>        -0.0173
      9 C6         -3.2646    2.9793    0.5500 C.3       1 <0>         0.0270
     10 C7         -4.1652    2.7720    1.7404 C.2       1 <0>         0.4648
     11 O3         -3.7620    2.1508    2.7090 O.co2     1 <0>        -0.7018
     12 O4         -5.2969    3.2254    1.7349 O.co2     1 <0>        -0.6970
     13 N2         -3.8819    3.9450   -0.3687 N.3       1 <0>        -0.8224
     14 H1          0.0021   -0.0041    0.0020 H         1 <0>         0.0931
     15 H2          1.0099    1.4631    0.0003 H         1 <0>         0.0818
     16 H3         -0.5229    1.4373    0.9048 H         1 <0>         0.1067
     17 H4         -4.0102    1.3075   -0.5858 H         1 <0>         0.0700
     18 H5         -2.6848    0.9046    0.5319 H         1 <0>         0.0788
     19 H6         -2.3008    3.3621    0.8858 H         1 <0>         0.0670
     20 H7         -4.7773    3.6129   -0.6944 H         1 <0>         0.3399
     21 H8         -3.9685    4.8521    0.0648 H         1 <0>         0.3266
     22 H9         -1.0767    2.5692   -4.2035 H         1 <0>         0.4486
@<TRIPOS>BOND
     1    1   14 1
     2    1   15 1
     3    1   16 1
     4    1    2 1
     5    2    3 2
     6    2    7 1
     7    3    4 1
     8    3    8 1
     9    4    6 am
    10    4    5 2
    11    6    7 1
    12    6   22 1
    13    8    9 1
    14    8   17 1
    15    8   18 1
    16    9   10 1
    17    9   13 1
    18    9   19 1
    19   10   11 2
    20   10   12 1
    21   13   20 1
    22   13   21 1
@<TRIPOS>MOLECULE
CHEMBL13378__2
   22    22     0     0     0
SMALL
USER_CHARGES

@<TRIPOS>ATOM
      1 C1         -0.0127    1.0858    0.0080 C.3       1 <0>        -0.0841
      2 C2         -0.7416    1.5850   -1.2129 C.2       1 <0>         0.0182
      3 C3         -2.0612    1.8307   -1.2988 C.2       1 <0>        -0.3161
      4 C4         -2.3386    2.2830   -2.6073 C.2       1 <0>         0.3643
      5 O1         -3.5575    2.6352   -3.0888 O.3       1 <0>        -0.7047
      6 N1         -1.2135    2.3030   -3.2729 N.2       1 <0>        -0.4461
      7 O2         -0.1856    1.8672   -2.4015 O.3       1 <0>        -0.1248
      8 C5         -3.0682    1.6533   -0.1918 C.3       1 <0>        -0.0328
      9 C6         -3.1833    2.9537    0.6062 C.3       1 <0>        -0.0396
     10 C7         -4.2767    2.8171    1.6342 C.2       1 <0>         0.4945
     11 O3         -4.0167    2.3955    2.7483 O.co2     1 <0>        -0.6831
     12 O4         -5.4212    3.1281    1.3519 O.co2     1 <0>        -0.6379
     13 N2         -1.9079    3.2284    1.2814 N.4       1 <0>        -0.6130
     14 H1          0.0021   -0.0041    0.0020 H         1 <0>         0.0908
     15 H2          1.0099    1.4631    0.0003 H         1 <0>         0.0827
     16 H3         -0.5229    1.4373    0.9048 H         1 <0>         0.0564
     17 H4         -4.0387    1.4028   -0.6201 H         1 <0>         0.1090
     18 H5         -2.7441    0.8491    0.4688 H         1 <0>         0.0723
     19 H6         -3.4208    3.7750   -0.0699 H         1 <0>         0.1339
     20 H7         -1.1758    3.3198    0.5930 H         1 <0>         0.4136
     21 H8         -1.9838    4.0859    1.8076 H         1 <0>         0.4223
     22 H9         -1.6880    2.4680    1.9072 H         1 <0>         0.4242
@<TRIPOS>BOND
     1    1   14 1
     2    1   15 1
     3    1   16 1
     4    1    2 1
     5    2    3 2
     6    2    7 1
     7    3    4 1
     8    3    8 1
     9    4    6 2
    10    4    5 1
    11    6    7 1
    12    8    9 1
    13    8   17 1
    14    8   18 1
    15    9   10 1
    16    9   13 1
    17    9   19 1
    18   10   11 2
    19   10   12 1
    20   13   20 1
    21   13   21 1
    22   13   22 1
@<TRIPOS>MOLECULE
CHEMBL13378__3
   22    22     0     0     0
SMALL
USER_CHARGES

@<TRIPOS>ATOM
      1 C1         -0.0127    1.0858    0.0080 C.3       1 <0>        -0.0897
      2 C2         -0.7416    1.5850   -1.2129 C.2       1 <0>         0.0829
      3 C3         -2.0637    1.8281   -1.2889 C.2       1 <0>        -0.2699
      4 C4         -2.3566    2.2813   -2.5922 C.2       1 <0>         0.5353
      5 O1         -3.4555    2.5967   -3.0193 O.2       1 <0>        -0.5064
      6 N1         -1.1945    2.3016   -3.2786 N.am      1 <0>        -0.5824
      7 O2         -0.1781    1.8636   -2.3940 O.3       1 <0>        -0.0557
      8 C5         -3.0601    1.6465   -0.1730 C.3       1 <0>        -0.0602
      9 C6         -3.2646    2.9793    0.5500 C.3       1 <0>         0.0318
     10 C7         -4.3496    2.8280    1.5849 C.2       1 <0>         0.5056
     11 O3         -4.0655    2.4886    2.7209 O.co2     1 <0>        -0.6909
     12 O4         -5.5115    3.0451    1.2861 O.co2     1 <0>        -0.6969
     13 N2         -2.0126    3.3767    1.2077 N.3       1 <0>        -0.8230
     14 H1          0.0021   -0.0041    0.0020 H         1 <0>         0.0973
     15 H2          1.0099    1.4631    0.0003 H         1 <0>         0.0881
     16 H3         -0.5229    1.4373    0.9048 H         1 <0>         0.1029
     17 H4         -4.0102    1.3075   -0.5858 H         1 <0>         0.0820
     18 H5         -2.6848    0.9046    0.5319 H         1 <0>         0.0719
     19 H6         -3.5545    3.7432   -0.1714 H         1 <0>         0.0729
     20 H7         -1.7225    2.6842    1.8817 H         1 <0>         0.3394
     21 H8         -1.2859    3.5472    0.5288 H         1 <0>         0.3130
     22 H9         -1.0767    2.5692   -4.2035 H         1 <0>         0.4522
@<TRIPOS>BOND
     1    1   14 1
     2    1   15 1
     3    1   16 1
     4    1    2 1
     5    2    3 2
     6    2    7 1
     7    3    4 1
     8    3    8 1
     9    4    6 am
    10    4    5 2
    11    6    7 1
    12    6   22 1
    13    8    9 1
    14    8   17 1
    15    8   18 1
    16    9   10 1
    17    9   13 1
    18    9   19 1
    19   10   11 2
    20   10   12 1
    21   13   20 1
    22   13   21 1
@<TRIPOS>MOLECULE
CHEMBL268284
   33    35     0     0     0
SMALL
USER_CHARGES

@<TRIPOS>ATOM
      1 C1          0.3081    1.4409   -0.7155 C.2       1 <0>        -0.1898
      2 C2          0.8129    1.6263    0.5872 C.2       1 <0>        -0.1811
      3 C3          1.3846    0.4660    0.9687 C.2       1 <0>        -0.0112
      4 N1          1.2513   -0.4311   -0.0522 N.pl3     1 <0>        -0.4149
      5 C4          0.5898    0.1740   -1.0822 C.2       1 <0>         0.0328
      6 C5          1.7172   -1.7540   -0.0444 C.ar      1 <0>         0.2111
      7 C6          1.2850   -2.6337    0.9350 C.ar      1 <0>        -0.1220
      8 C7          1.7456   -3.9445    0.9433 C.ar      1 <0>         0.2255
      9 C8          2.6444   -4.3703   -0.0374 C.ar      1 <0>         0.1099
     10 C9          3.0729   -3.4801   -1.0162 C.ar      1 <0>        -0.0413
     11 C10         2.6074   -2.1821   -1.0227 C.ar      1 <0>        -0.0643
     12 N2          3.0615   -1.2403   -2.0706 N.pl3     1 <0>         0.0404
     13 O1          3.7388   -1.6389   -2.9893 O.2       1 <0>        -0.1719
     14 O2          2.7552   -0.0724   -2.0076 O.3       1 <0>        -0.1326
     15 N3          3.1166   -5.6805   -0.0439 N.am      1 <0>        -0.6300
     16 H1          3.7408   -5.9669   -0.7289 H         1 <0>         0.4243
     17 C11         2.7077   -6.5514    0.9008 C.2       1 <0>         0.5182
     18 O3          3.1175   -7.6949    0.8996 O.2       1 <0>        -0.4647
     19 C12         1.7477   -6.0965    1.9474 C.2       1 <0>         0.5089
     20 O4          1.3677   -6.8658    2.8071 O.2       1 <0>        -0.4460
     21 N4          1.3067   -4.8224    1.9305 N.am      1 <0>        -0.4898
     22 C13         0.3642   -4.3611    2.9529 C.3       1 <0>         0.0167
     23 C14        -1.0466   -4.5904    2.4754 C.2       1 <0>         0.4871
     24 O5         -1.2463   -5.0926    1.3825 O.co2     1 <0>        -0.6767
     25 O6         -1.9884   -4.2738    3.1821 O.co2     1 <0>        -0.6777
     26 H2         -0.2131    2.1770   -1.3095 H         1 <0>         0.1400
     27 H3          0.7529    2.5318    1.1727 H         1 <0>         0.1399
     28 H4          1.8652    0.2787    1.9176 H         1 <0>         0.1624
     29 H5          0.3358   -0.2831   -2.0271 H         1 <0>         0.1537
     30 H6          0.5905   -2.3005    1.6920 H         1 <0>         0.1699
     31 H7          3.7681   -3.8073   -1.7752 H         1 <0>         0.1716
     32 H8          0.5299   -4.9158    3.8765 H         1 <0>         0.1061
     33 H9          0.5178   -3.2975    3.1352 H         1 <0>         0.0956
@<TRIPOS>BOND
     1    1    5 2
     2    1    2 1
     3    1   26 1
     4    2    3 2
     5    2   27 1
     6    3    4 1
     7    3   28 1
     8    4    5 1
     9    4    6 1
    10    5   29 1
    11    6   11 ar
    12    6    7 ar
    13    7    8 ar
    14    7   30 1
    15    8   21 1
    16    8    9 ar
    17    9   10 ar
    18    9   15 1
    19   10   11 ar
    20   10   31 1
    21   11   12 1
    22   12   13 2
    23   12   14 1
    24   15   16 1
    25   15   17 am
    26   17   18 2
    27   17   19 1
    28   19   20 2
    29   19   21 am
    30   21   22 1
    31   22   23 1
    32   22   32 1
    33   22   33 1
    34   23   24 2
    35   23   25 1
@<TRIPOS>MOLECULE
CHEMBL268284__1
   32    34     0     0     0
SMALL
USER_CHARGES

@<TRIPOS>ATOM
      1 C1          0.3035    1.4381   -0.7188 C.2       1 <0>        -0.2079
      2 C2          0.8086    1.6256    0.5837 C.2       1 <0>        -0.1988
      3 C3          1.3820    0.4667    0.9663 C.2       1 <0>        -0.0089
      4 N1          1.2496   -0.4320   -0.0538 N.pl3     1 <0>        -0.3912
      5 C4          0.5867    0.1715   -1.0845 C.2       1 <0>         0.0387
      6 C5          1.7159   -1.7520   -0.0446 C.ar      1 <0>         0.1265
      7 C6          1.2820   -2.6290    0.9353 C.ar      1 <0>        -0.1142
      8 C7          1.7450   -3.9389    0.9439 C.ar      1 <0>         0.1421
      9 C8          2.6522   -4.3651   -0.0440 C.ar      1 <0>         0.1700
     10 C9          3.0783   -3.4592   -1.0271 C.ar      1 <0>        -0.0580
     11 C10         2.6103   -2.1786   -1.0253 C.ar      1 <0>        -0.0523
     12 N2          3.0601   -1.2315   -2.0702 N.pl3     1 <0>         0.0474
     13 O1          3.7379   -1.6245   -2.9910 O.2       1 <0>        -0.1903
     14 O2          2.7498   -0.0650   -2.0028 O.3       1 <0>        -0.1600
     15 N3          3.1122   -5.6325   -0.0521 N.2       1 <0>        -0.6061
     16 C11         2.7299   -6.4940    0.8529 C.2       1 <0>         0.4283
     17 O3          3.2069   -7.7623    0.8237 O.3       1 <0>        -0.6294
     18 C12         1.7823   -6.0895    1.9047 C.2       1 <0>         0.4789
     19 O4          1.4224   -6.8877    2.7506 O.2       1 <0>        -0.5098
     20 N4          1.3167   -4.8215    1.9184 N.am      1 <0>        -0.4861
     21 C13         0.3729   -4.3873    2.9513 C.3       1 <0>         0.0238
     22 C14        -1.0370   -4.6269    2.4762 C.2       1 <0>         0.4889
     23 O5         -1.2352   -5.1150    1.3767 O.co2     1 <0>        -0.6743
     24 O6         -1.9796   -4.3326    3.1914 O.co2     1 <0>        -0.6994
     25 H1         -0.2189    2.1730   -1.3133 H         1 <0>         0.1310
     26 H2          0.7478    2.5318    1.1682 H         1 <0>         0.1308
     27 H3          1.8629    0.2812    1.9154 H         1 <0>         0.1553
     28 H4          0.3329   -0.2868   -2.0289 H         1 <0>         0.1471
     29 H5          0.5860   -2.2957    1.6909 H         1 <0>         0.1456
     30 H6          3.7743   -3.7780   -1.7889 H         1 <0>         0.1580
     31 H7          0.5493   -4.9536    3.8658 H         1 <0>         0.0924
     32 H8          0.5141   -3.3248    3.1490 H         1 <0>         0.0818
@<TRIPOS>BOND
     1    1    5 2
     2    1    2 1
     3    1   25 1
     4    2    3 2
     5    2   26 1
     6    3    4 1
     7    3   27 1
     8    4    5 1
     9    4    6 1
    10    5   28 1
    11    6   11 ar
    12    6    7 ar
    13    7    8 ar
    14    7   29 1
    15    8   20 1
    16    8    9 ar
    17    9   10 ar
    18    9   15 1
    19   10   11 ar
    20   10   30 1
    21   11   12 1
    22   12   13 2
    23   12   14 1
    24   15   16 2
    25   16   17 1
    26   16   18 1
    27   18   19 2
    28   18   20 am
    29   20   21 1
    30   21   22 1
    31   21   31 1
    32   21   32 1
    33   22   23 2
    34   22   24 1
@<TRIPOS>MOLECULE
CHEMBL291491
   38    38     0     0     0
SMALL
USER_CHARGES

@<TRIPOS>ATOM
      1 C1         -0.0168    1.3911    0.0097 C.ar      1 <0>        -0.1227
      2 C2          1.1703    2.0942    0.0021 C.ar      1 <0>        -0.0687
      3 C3          2.3776    1.4188   -0.0135 C.ar      1 <0>        -0.2002
      4 C4          2.4032    0.0356   -0.0212 C.ar      1 <0>        -0.0626
      5 C5          1.2231   -0.6792   -0.0133 C.ar      1 <0>        -0.1226
      6 C6          0.0021   -0.0041    0.0020 C.ar      1 <0>        -0.0001
      7 C7         -1.2660   -0.7636    0.0105 C.2       1 <0>        -0.1723
      8 C8         -1.2447   -2.0891    0.0032 C.2       1 <0>        -0.0795
      9 C9         -2.5375   -2.8634    0.0119 C.3       1 <0>        -0.0771
     10 C10        -2.5617   -3.8289   -1.1747 C.3       1 <0>        -0.1653
     11 H1         -2.3934   -3.2743   -2.0979 H         1 <0>         0.0520
     12 C11        -3.9229   -4.5246   -1.2386 C.3       1 <0>        -0.1019
     13 C12        -3.9922   -5.3954   -2.4947 C.3       1 <0>        -0.0438
     14 H2         -3.1497   -6.0870   -2.5043 H         1 <0>         0.1360
     15 C13        -5.2820   -6.1748   -2.4951 C.2       1 <0>         0.4939
     16 O1         -6.2791   -5.7032   -3.0145 O.co2     1 <0>        -0.6844
     17 O2         -5.3284   -7.2770   -1.9759 O.co2     1 <0>        -0.6389
     18 N1         -3.9368   -4.5397   -3.6874 N.4       1 <0>        -0.6112
     19 C14        -1.4773   -4.8615   -1.0044 C.2       1 <0>         0.4947
     20 O3         -1.4801   -5.5933   -0.0291 O.co2     1 <0>        -0.6752
     21 O4         -0.5972   -4.9651   -1.8417 O.co2     1 <0>        -0.7014
     22 C15         3.6704    2.1932   -0.0227 C.3       1 <0>         0.5096
     23 F1          4.0838    2.4262    1.2934 F         1 <0>        -0.1788
     24 F2          4.6506    1.4562   -0.6958 F         1 <0>        -0.1779
     25 F3          3.4769    3.4161   -0.6741 F         1 <0>        -0.1799
     26 H3         -0.9586    1.9195    0.0260 H         1 <0>         0.1339
     27 H4          1.1570    3.1741    0.0081 H         1 <0>         0.1329
     28 H5          3.3489   -0.4857   -0.0337 H         1 <0>         0.1354
     29 H6          1.2444   -1.7590   -0.0196 H         1 <0>         0.1408
     30 H7         -2.2097   -0.2387    0.0227 H         1 <0>         0.1209
     31 H8         -0.3009   -2.6140   -0.0090 H         1 <0>         0.1197
     32 H9         -2.6168   -3.4277    0.9411 H         1 <0>         0.0904
     33 H10        -3.3761   -2.1714   -0.0656 H         1 <0>         0.0614
     34 H11        -4.0531   -5.1500   -0.3553 H         1 <0>         0.1077
     35 H12        -4.7130   -3.7746   -1.2724 H         1 <0>         0.0688
     36 H13        -3.9825   -5.1139   -4.5158 H         1 <0>         0.4234
     37 H14        -4.7166   -3.8995   -3.6785 H         1 <0>         0.4244
     38 H15        -3.0732   -4.0178   -3.6871 H         1 <0>         0.4186
@<TRIPOS>BOND
     1    1    6 ar
     2    1    2 ar
     3    1   26 1
     4    2    3 ar
     5    2   27 1
     6    3    4 ar
     7    3   22 1
     8    4    5 ar
     9    4   28 1
    10    5    6 ar
    11    5   29 1
    12    6    7 1
    13    7    8 2
    14    7   30 1
    15    8    9 1
    16    8   31 1
    17    9   10 1
    18    9   32 1
    19    9   33 1
    20   10   11 1
    21   10   12 1
    22   10   19 1
    23   12   13 1
    24   12   34 1
    25   12   35 1
    26   13   14 1
    27   13   15 1
    28   13   18 1
    29   15   16 2
    30   15   17 1
    31   18   36 1
    32   18   37 1
    33   18   38 1
    34   19   20 2
    35   19   21 1
    36   22   23 1
    37   22   24 1
    38   22   25 1
@<TRIPOS>MOLECULE
CHEMBL279956
   21    21     0     0     0
SMALL
USER_CHARGES

@<TRIPOS>ATOM
      1 C1         -0.0187    1.5258    0.0104 C.3       1 <0>         0.0917
      2 C2          0.0021   -0.0041    0.0020 C.3       1 <0>         0.0767
      3 H1          0.4501   -0.3665    0.9272 H         1 <0>         0.1461
      4 C3         -1.4075   -0.5249   -0.1112 C.2       1 <0>         0.4859
      5 O1         -1.8299   -0.8975   -1.1801 O.2       1 <0>        -0.4722
      6 O2         -2.1938   -0.5750    0.9756 O.3       1 <0>        -0.4978
      7 N1          0.7922   -0.4768   -1.1426 N.3       1 <0>        -0.8134
      8 N2          1.3557    2.0329    0.0000 N.pl3     1 <0>        -0.3551
      9 C4          2.1974    2.0610   -1.0502 C.cat     1 <0>         0.6690
     10 N3          3.3406    2.5899   -0.6626 N.am      1 <0>        -0.6154
     11 C5          3.2828    2.9177    0.6282 C.2       1 <0>         0.6302
     12 O3          4.1822    3.4265    1.2753 O.2       1 <0>        -0.3598
     13 O4          2.0627    2.5981    1.0944 O.3       1 <0>        -0.0267
     14 O5          1.9169    1.6204   -2.2941 O.3       1 <0>        -0.3761
     15 H2         -0.5459    1.8868   -0.8726 H         1 <0>         0.1538
     16 H3         -0.5289    1.8773    0.9072 H         1 <0>         0.1664
     17 H4         -3.0795   -0.9232    0.8045 H         1 <0>         0.4289
     18 H5          0.3968   -0.1538   -2.0130 H         1 <0>         0.3707
     19 H6          1.7572   -0.1947   -1.0571 H         1 <0>         0.3408
     20 H7          2.6463    1.7214   -2.9209 H         1 <0>         0.4731
     21 H8          4.1132    2.7213   -1.2343 H         1 <0>         0.4833
@<TRIPOS>BOND
     1    1    2 1
     2    1    8 1
     3    1   15 1
     4    1   16 1
     5    2    3 1
     6    2    4 1
     7    2    7 1
     8    4    5 2
     9    4    6 1
    10    6   17 1
    11    7   18 1
    12    7   19 1
    13    8   13 1
    14    8    9 1
    15    9   10 2
    16    9   14 1
    17   10   11 am
    18   10   21 1
    19   11   12 2
    20   11   13 1
    21   14   20 1
@<TRIPOS>MOLECULE
CHEMBL279956__1
   19    19     0     0     0
SMALL
USER_CHARGES

@<TRIPOS>ATOM
      1 C1         -0.0187    1.5258    0.0104 C.3       1 <0>         0.1811
      2 C2          0.0021   -0.0041    0.0020 C.3       1 <0>         0.0805
      3 H1          0.4501   -0.3665    0.9272 H         1 <0>         0.1171
      4 C3         -1.4075   -0.5249   -0.1112 C.2       1 <0>         0.4425
      5 O1         -1.8299   -0.8975   -1.1801 O.2       1 <0>        -0.5156
      6 O2         -2.1938   -0.5750    0.9756 O.3       1 <0>        -0.5069
      7 N1          0.7922   -0.4768   -1.1426 N.3       1 <0>        -0.7852
      8 N2          1.3557    2.0329    0.0000 N.pl3     1 <0>        -0.4862
      9 C4          2.1974    2.0610   -1.0502 C.2       1 <0>         0.6305
     10 N3          3.3406    2.5899   -0.6626 N.2       1 <0>        -0.6739
     11 C5          3.2828    2.9177    0.6282 C.2       1 <0>         0.5836
     12 O3          4.1822    3.4265    1.2753 O.2       1 <0>        -0.5515
     13 O4          2.0627    2.5981    1.0944 O.3       1 <0>        -0.1739
     14 O5          1.9169    1.6204   -2.2941 O.3       1 <0>        -0.6370
     15 H2         -0.5459    1.8868   -0.8726 H         1 <0>         0.0929
     16 H3         -0.5289    1.8773    0.9072 H         1 <0>         0.0987
     17 H4         -3.0795   -0.9232    0.8045 H         1 <0>         0.3999
     18 H5          0.8750   -1.4823   -1.1342 H         1 <0>         0.3368
     19 H6          0.3968   -0.1538   -2.0130 H         1 <0>         0.3665
@<TRIPOS>BOND
     1    1    2 1
     2    1    8 1
     3    1   15 1
     4    1   16 1
     5    2    3 1
     6    2    4 1
     7    2    7 1
     8    4    5 2
     9    4    6 1
    10    6   17 1
    11    7   18 1
    12    7   19 1
    13    8   13 1
    14    8    9 1
    15    9   10 2
    16    9   14 1
    17   10   11 1
    18   11   12 2
    19   11   13 1
@<TRIPOS>MOLECULE
CHEMBL500042
   31    30     0     0     0
SMALL
USER_CHARGES

@<TRIPOS>ATOM
      1 C1         -0.0178    1.4608    0.0101 C.3       1 <0>         0.0880
      2 N1          0.0021   -0.0041    0.0020 N.am      1 <0>        -0.7430
      3 C2          0.6044   -0.6754    1.0035 C.2       1 <0>         0.5137
      4 O1          1.1299   -0.0668    1.9115 O.2       1 <0>        -0.5400
      5 C3          0.6248   -2.1822    0.9953 C.3       1 <0>        -0.1359
      6 C4          1.3648   -2.6890    2.2348 C.3       1 <0>        -0.0789
      7 C5          1.3856   -4.2189    2.2264 C.3       1 <0>        -0.1695
      8 H1          0.3660   -4.5956    2.1445 H         1 <0>         0.0494
      9 C6          2.0145   -4.7275    3.5251 C.3       1 <0>        -0.1014
     10 C7          1.9225   -6.2540    3.5725 C.3       1 <0>        -0.0436
     11 H2          2.3781   -6.6735    2.6756 H         1 <0>         0.1356
     12 C8          2.6494   -6.7634    4.7904 C.2       1 <0>         0.4939
     13 O2          2.0522   -6.8983    5.8448 O.co2     1 <0>        -0.6851
     14 O3          3.8347   -7.0406    4.7213 O.co2     1 <0>        -0.6396
     15 N2          0.5117   -6.6577    3.6398 N.4       1 <0>        -0.6107
     16 C9          2.1961   -4.7038    1.0521 C.2       1 <0>         0.4944
     17 O4          3.3707   -4.3928    0.9521 O.co2     1 <0>        -0.6744
     18 O5          1.6772   -5.4072    0.2021 O.co2     1 <0>        -0.7058
     19 H3          1.0048    1.8381    0.0023 H         1 <0>         0.0574
     20 H4         -0.5450    1.8219   -0.8730 H         1 <0>         0.0715
     21 H5         -0.5280    1.8123    0.9069 H         1 <0>         0.0561
     22 H6         -0.4183   -0.4908   -0.7241 H         1 <0>         0.4019
     23 H7         -0.3978   -2.5595    1.0030 H         1 <0>         0.0868
     24 H8          1.1350   -2.5337    0.0985 H         1 <0>         0.1005
     25 H9          2.3874   -2.3118    2.2270 H         1 <0>         0.0790
     26 H10         0.8546   -2.3375    3.1316 H         1 <0>         0.0580
     27 H11         3.0610   -4.4252    3.5647 H         1 <0>         0.1072
     28 H12         1.4816   -4.3048    4.3768 H         1 <0>         0.0688
     29 H13         0.0900   -6.2694    4.4701 H         1 <0>         0.4245
     30 H14         0.0250   -6.3167    2.8244 H         1 <0>         0.4182
     31 H15         0.4511   -7.6644    3.6711 H         1 <0>         0.4226
@<TRIPOS>BOND
     1    1    2 1
     2    1   19 1
     3    1   20 1
     4    1   21 1
     5    2    3 am
     6    2   22 1
     7    3    4 2
     8    3    5 1
     9    5    6 1
    10    5   23 1
    11    5   24 1
    12    6    7 1
    13    6   25 1
    14    6   26 1
    15    7    8 1
    16    7    9 1
    17    7   16 1
    18    9   10 1
    19    9   27 1
    20    9   28 1
    21   10   11 1
    22   10   12 1
    23   10   15 1
    24   12   13 2
    25   12   14 1
    26   15   29 1
    27   15   30 1
    28   15   31 1
    29   16   17 2
    30   16   18 1
@<TRIPOS>MOLECULE
CHEMBL479804
   28    27     0     0     0
SMALL
USER_CHARGES

@<TRIPOS>ATOM
      1 C1         -0.0262    1.5001    0.0640 C.3       1 <0>        -0.0801
      2 C2         -0.0148   -0.0090   -0.1877 C.3       1 <0>        -0.1376
      3 C3         -1.3712   -0.5820    0.1329 C.2       1 <0>         0.5180
      4 O1         -2.2596    0.1450    0.5242 O.2       1 <0>        -0.5458
      5 N1         -1.5971   -1.9024   -0.0152 N.am      1 <0>        -0.8620
      6 C4          1.3819    2.0621   -0.1414 C.3       1 <0>        -0.1694
      7 H1          2.0853    1.5197    0.4904 H         1 <0>         0.0490
      8 C5          1.3988    3.5454    0.2336 C.3       1 <0>        -0.1007
      9 C6          2.8333    4.0727    0.1641 C.3       1 <0>        -0.0448
     10 H2          3.2517    3.8592   -0.8195 H         1 <0>         0.1369
     11 C7          2.8331    5.5615    0.3975 C.2       1 <0>         0.4954
     12 O2          3.2956    6.0169    1.4296 O.co2     1 <0>        -0.6903
     13 O3          2.3705    6.3107   -0.4459 O.co2     1 <0>        -0.6372
     14 N2          3.6471    3.4155    1.1955 N.4       1 <0>        -0.6088
     15 C8          1.7798    1.9047   -1.5863 C.2       1 <0>         0.4950
     16 O4          1.0739    2.3663   -2.4668 O.co2     1 <0>        -0.6746
     17 O5          2.8076    1.3157   -1.8749 O.co2     1 <0>        -0.7065
     18 H3         -0.7139    1.9795   -0.6326 H         1 <0>         0.0793
     19 H4         -0.3498    1.6955    1.0864 H         1 <0>         0.0587
     20 H5          0.2226   -0.2010   -1.2341 H         1 <0>         0.1002
     21 H6          0.7370   -0.4776    0.4473 H         1 <0>         0.0874
     22 H7         -0.8866   -2.4839   -0.3282 H         1 <0>         0.4009
     23 H8         -2.4702   -2.2713    0.1911 H         1 <0>         0.3960
     24 H9          0.7725    4.1033   -0.4626 H         1 <0>         0.1105
     25 H10         1.0151    3.6685    1.2463 H         1 <0>         0.0661
     26 H11         3.6473    2.4187    1.0392 H         1 <0>         0.4174
     27 H12         4.5932    3.7633    1.1497 H         1 <0>         0.4245
     28 H13         3.2599    3.6131    2.1060 H         1 <0>         0.4227
@<TRIPOS>BOND
     1    1    2 1
     2    1    6 1
     3    1   18 1
     4    1   19 1
     5    2    3 1
     6    2   20 1
     7    2   21 1
     8    3    4 2
     9    3    5 am
    10    5   22 1
    11    5   23 1
    12    6    7 1
    13    6    8 1
    14    6   15 1
    15    8    9 1
    16    8   24 1
    17    8   25 1
    18    9   10 1
    19    9   11 1
    20    9   14 1
    21   11   12 2
    22   11   13 1
    23   14   26 1
    24   14   27 1
    25   14   28 1
    26   15   16 2
    27   15   17 1
@<TRIPOS>MOLECULE
CHEMBL14712
   39    43     0     0     0
SMALL
USER_CHARGES

@<TRIPOS>ATOM
      1 C1         -0.0178    1.4648    0.0101 C.3       1 <0>        -0.0551
      2 N1          0.0021   -0.0041    0.0020 N.4       1 <0>        -0.3853
      3 C2         -1.3839   -0.5219    0.0384 C.3       1 <0>        -0.0141
      4 C3         -1.3073   -1.7957    0.9172 C.3       1 <0>        -0.1527
      5 C4         -0.2646   -1.3777    1.9888 C.3       1 <0>        -0.1224
      6 C5          0.7117   -0.4962    1.1905 C.3       1 <0>         0.1839
      7 C6          1.2095    0.6418    2.0366 C.ar      1 <0>        -0.1145
      8 C7          0.5836    1.6887    2.6754 C.ar      1 <0>        -0.0806
      9 C8          1.3292    2.6021    3.4008 C.ar      1 <0>        -0.0810
     10 C9          2.7036    2.4659    3.4863 C.ar      1 <0>        -0.0820
     11 C10         3.3403    1.4210    2.8500 C.ar      1 <0>        -0.0660
     12 C11         2.5947    0.4957    2.1153 C.ar      1 <0>        -0.0574
     13 C12         3.0066   -0.7008    1.3425 C.2       1 <0>         0.2261
     14 C13         1.9307   -1.2923    0.7961 C.2       1 <0>        -0.0701
     15 N2          2.0538   -2.4316    0.0234 N.pl3     1 <0>        -0.3531
     16 C14         1.1491   -3.2058   -0.6311 C.2       1 <0>        -0.0621
     17 C15         1.8413   -4.2062   -1.2317 C.2       1 <0>         0.0232
     18 N3          3.1344   -4.0504   -0.9542 N.2       1 <0>        -0.3942
     19 C16         3.2875   -2.9835   -0.1972 C.2       1 <0>         0.1514
     20 C17         4.4634   -2.3369    0.4021 C.2       1 <0>         0.5982
     21 N4          4.2835   -1.2270    1.1448 N.am      1 <0>        -0.6254
     22 O1          5.5784   -2.7954    0.2314 O.2       1 <0>        -0.4481
     23 H1          1.0047    1.8421    0.0024 H         1 <0>         0.1231
     24 H2         -0.5450    1.8259   -0.8730 H         1 <0>         0.1296
     25 H3         -0.5280    1.8163    0.9069 H         1 <0>         0.1326
     26 H4         -2.0513    0.2116    0.4906 H         1 <0>         0.1423
     27 H5         -1.7212   -0.7742   -0.9670 H         1 <0>         0.1436
     28 H6         -2.2723   -2.0122    1.3753 H         1 <0>         0.1306
     29 H7         -0.9518   -2.6482    0.3385 H         1 <0>         0.1014
     30 H8         -0.7386   -0.8047    2.7857 H         1 <0>         0.1162
     31 H9          0.2463   -2.2521    2.3919 H         1 <0>         0.1173
     32 H10        -0.4889    1.7974    2.6103 H         1 <0>         0.1442
     33 H11         0.8371    3.4231    3.9009 H         1 <0>         0.1514
     34 H12         3.2804    3.1814    4.0535 H         1 <0>         0.1508
     35 H13         4.4132    1.3185    2.9193 H         1 <0>         0.1439
     36 H14         0.0804   -3.0538   -0.6661 H         1 <0>         0.1930
     37 H15         1.4155   -4.9956   -1.8334 H         1 <0>         0.1993
     38 H16         5.0503   -0.7885    1.5456 H         1 <0>         0.4344
     39 H17         0.4652   -0.3341   -0.8315 H         1 <0>         0.4278
@<TRIPOS>BOND
     1    1    2 1
     2    1   23 1
     3    1   24 1
     4    1   25 1
     5    2    6 1
     6    2    3 1
     7    2   39 1
     8    3    4 1
     9    3   26 1
    10    3   27 1
    11    4    5 1
    12    4   28 1
    13    4   29 1
    14    5    6 1
    15    5   30 1
    16    5   31 1
    17    6   14 1
    18    6    7 1
    19    7   12 ar
    20    7    8 ar
    21    8    9 ar
    22    8   32 1
    23    9   10 ar
    24    9   33 1
    25   10   11 ar
    26   10   34 1
    27   11   12 ar
    28   11   35 1
    29   12   13 1
    30   13   21 1
    31   13   14 2
    32   14   15 1
    33   15   19 1
    34   15   16 1
    35   16   17 2
    36   16   36 1
    37   17   18 1
    38   17   37 1
    39   18   19 2
    40   19   20 1
    41   20   21 am
    42   20   22 2
    43   21   38 1
@<TRIPOS>MOLECULE
CHEMBL14712__1
   38    42     0     0     0
SMALL
USER_CHARGES

@<TRIPOS>ATOM
      1 C1         -0.0178    1.4648    0.0101 C.3       1 <0>         0.0126
      2 N1          0.0021   -0.0041    0.0020 N.3       1 <0>        -0.5112
      3 C2         -1.3723   -0.5531   -0.0023 C.3       1 <0>         0.0360
      4 C3         -1.2793   -1.8589    0.8265 C.3       1 <0>        -0.1401
      5 C4         -0.2609   -1.4613    1.9288 C.3       1 <0>        -0.1245
      6 C5          0.7062   -0.5275    1.1803 C.3       1 <0>         0.1985
      7 C6          1.1668    0.5864    2.0779 C.ar      1 <0>        -0.0848
      8 C7          0.5089    1.5931    2.7484 C.ar      1 <0>        -0.0859
      9 C8          1.2239    2.4930    3.5201 C.ar      1 <0>        -0.1003
     10 C9          2.5997    2.3836    3.6201 C.ar      1 <0>        -0.1062
     11 C10         3.2683    1.3790    2.9524 C.ar      1 <0>        -0.0866
     12 C11         2.5538    0.4676    2.1709 C.ar      1 <0>        -0.0514
     13 C12         3.0028   -0.6879    1.3575 C.2       1 <0>         0.1430
     14 C13         1.9480   -1.2805    0.7725 C.2       1 <0>         0.0409
     15 N2          2.1071   -2.3851   -0.0427 N.pl3     1 <0>        -0.3366
     16 C14         1.2290   -3.1522   -0.7404 C.2       1 <0>        -0.0221
     17 C15         1.9516   -4.1126   -1.3700 C.2       1 <0>        -0.0088
     18 N3          3.2371   -3.9397   -1.0677 N.2       1 <0>        -0.4081
     19 C16         3.3558   -2.9008   -0.2670 C.2       1 <0>         0.1297
     20 C17         4.5087   -2.2530    0.3745 C.2       1 <0>         0.6012
     21 N4          4.2938   -1.1778    1.1578 N.am      1 <0>        -0.6280
     22 O1          5.6358   -2.6799    0.2020 O.2       1 <0>        -0.4851
     23 H1          1.0047    1.8421    0.0024 H         1 <0>         0.0705
     24 H2         -0.5450    1.8259   -0.8730 H         1 <0>         0.0738
     25 H3         -0.5280    1.8163    0.9069 H         1 <0>         0.0454
     26 H4         -2.0621    0.1471    0.4688 H         1 <0>         0.0575
     27 H5         -1.6901   -0.7724   -1.0216 H         1 <0>         0.0913
     28 H6         -2.2454   -2.1145    1.2616 H         1 <0>         0.0883
     29 H7         -0.8968   -2.6797    0.2198 H         1 <0>         0.0819
     30 H8         -0.7585   -0.9310    2.7408 H         1 <0>         0.0872
     31 H9          0.2638   -2.3397    2.3045 H         1 <0>         0.0825
     32 H10        -0.5648    1.6809    2.6720 H         1 <0>         0.1312
     33 H11         0.7067    3.2824    4.0451 H         1 <0>         0.1357
     34 H12         3.1525    3.0883    4.2236 H         1 <0>         0.1355
     35 H13         4.3421    1.2968    3.0338 H         1 <0>         0.1298
     36 H14         0.1578   -3.0224   -0.7849 H         1 <0>         0.1923
     37 H15         1.5519   -4.8865   -2.0085 H         1 <0>         0.1905
     38 H16         5.0450   -0.7390    1.5867 H         1 <0>         0.4242
@<TRIPOS>BOND
     1    1    2 1
     2    1   23 1
     3    1   24 1
     4    1   25 1
     5    2    6 1
     6    2    3 1
     7    3    4 1
     8    3   26 1
     9    3   27 1
    10    4    5 1
    11    4   28 1
    12    4   29 1
    13    5    6 1
    14    5   30 1
    15    5   31 1
    16    6   14 1
    17    6    7 1
    18    7   12 ar
    19    7    8 ar
    20    8    9 ar
    21    8   32 1
    22    9   10 ar
    23    9   33 1
    24   10   11 ar
    25   10   34 1
    26   11   12 ar
    27   11   35 1
    28   12   13 1
    29   13   21 1
    30   13   14 2
    31   14   15 1
    32   15   19 1
    33   15   16 1
    34   16   17 2
    35   16   36 1
    36   17   18 1
    37   17   37 1
    38   18   19 2
    39   19   20 1
    40   20   21 am
    41   20   22 2
    42   21   38 1
@<TRIPOS>MOLECULE
CHEMBL14712__2
   39    43     0     0     0
SMALL
USER_CHARGES

@<TRIPOS>ATOM
      1 C1         -0.0178    1.4648    0.0101 C.3       1 <0>        -0.0661
      2 N1          0.0021   -0.0041    0.0020 N.4       1 <0>        -0.3815
      3 C2         -1.3750   -0.5226    0.1601 C.3       1 <0>        -0.0144
      4 C3         -1.2213   -1.7965    1.0287 C.3       1 <0>        -0.1403
      5 C4         -0.0888   -1.3777    2.0046 C.3       1 <0>        -0.1244
      6 C5          0.8128   -0.4945    1.1247 C.3       1 <0>         0.1833
      7 C6          2.0011   -1.2744    0.6356 C.ar      1 <0>        -0.1244
      8 C7          2.1355   -2.4066   -0.1362 C.ar      1 <0>        -0.0736
      9 C8          3.3958   -2.9008   -0.4260 C.ar      1 <0>        -0.0816
     10 C9          4.5223   -2.2596    0.0585 C.ar      1 <0>        -0.0813
     11 C10         4.3985   -1.1247    0.8322 C.ar      1 <0>        -0.0668
     12 C11         3.1301   -0.6195    1.1283 C.ar      1 <0>        -0.0562
     13 C12         2.7065    0.5613    1.9188 C.2       1 <0>         0.2217
     14 C13         1.3658    0.6546    1.9301 C.2       1 <0>        -0.0582
     15 N2          0.7242    1.6775    2.6026 N.pl3     1 <0>        -0.3561
     16 C14        -0.5866    1.9964    2.7651 C.2       1 <0>        -0.0624
     17 C15        -0.6325    3.1164    3.5295 C.2       1 <0>         0.0276
     18 N3          0.6148    3.4752    3.8276 N.2       1 <0>        -0.3942
     19 C16         1.4525    2.6204    3.2778 C.2       1 <0>         0.1549
     20 C17         2.9185    2.5158    3.2672 C.2       1 <0>         0.5972
     21 N4          3.4898    1.4995    2.5916 N.am      1 <0>        -0.6251
     22 O1          3.6034    3.3329    3.8553 O.2       1 <0>        -0.4477
     23 H1          0.9918    1.8409    0.1750 H         1 <0>         0.1195
     24 H2         -0.3891    1.8284   -0.9481 H         1 <0>         0.1330
     25 H3         -0.6711    1.8149    0.8094 H         1 <0>         0.1323
     26 H4         -2.0004    0.2107    0.6693 H         1 <0>         0.1341
     27 H5         -1.7993   -0.7748   -0.8117 H         1 <0>         0.1460
     28 H6         -2.1423   -2.0134    1.5697 H         1 <0>         0.1266
     29 H7         -0.9174   -2.6488    0.4210 H         1 <0>         0.1052
     30 H8         -0.4917   -0.8059    2.8405 H         1 <0>         0.1050
     31 H9          0.4565   -2.2518    2.3607 H         1 <0>         0.1236
     32 H10         1.2580   -2.9092   -0.5152 H         1 <0>         0.1426
     33 H11         3.5000   -3.7892   -1.0313 H         1 <0>         0.1510
     34 H12         5.5030   -2.6500   -0.1700 H         1 <0>         0.1506
     35 H13         5.2803   -0.6275    1.2084 H         1 <0>         0.1437
     36 H14        -1.4325    1.4593    2.3620 H         1 <0>         0.1908
     37 H15        -1.5292    3.6299    3.8434 H         1 <0>         0.2000
     38 H16         4.4562    1.4181    2.5745 H         1 <0>         0.4347
     39 H17         0.3908   -0.3349   -0.8683 H         1 <0>         0.4310
@<TRIPOS>BOND
     1    1    2 1
     2    1   23 1
     3    1   24 1
     4    1   25 1
     5    2    6 1
     6    2    3 1
     7    2   39 1
     8    3    4 1
     9    3   26 1
    10    3   27 1
    11    4    5 1
    12    4   28 1
    13    4   29 1
    14    5    6 1
    15    5   30 1
    16    5   31 1
    17    6   14 1
    18    6    7 1
    19    7   12 ar
    20    7    8 ar
    21    8    9 ar
    22    8   32 1
    23    9   10 ar
    24    9   33 1
    25   10   11 ar
    26   10   34 1
    27   11   12 ar
    28   11   35 1
    29   12   13 1
    30   13   21 1
    31   13   14 2
    32   14   15 1
    33   15   19 1
    34   15   16 1
    35   16   17 2
    36   16   36 1
    37   17   18 1
    38   17   37 1
    39   18   19 2
    40   19   20 1
    41   20   21 am
    42   20   22 2
    43   21   38 1
@<TRIPOS>MOLECULE
CHEMBL14712__3
   38    42     0     0     0
SMALL
USER_CHARGES

@<TRIPOS>ATOM
      1 C1         -0.0178    1.4648    0.0101 C.3       1 <0>         0.0030
      2 N1          0.0021   -0.0041    0.0020 N.3       1 <0>        -0.5047
      3 C2         -1.3671   -0.5537    0.1187 C.3       1 <0>         0.0351
      4 C3         -1.2012   -1.8595    0.9362 C.3       1 <0>        -0.1281
      5 C4         -0.0903   -1.4610    1.9447 C.3       1 <0>        -0.1268
      6 C5          0.8065   -0.5258    1.1151 C.3       1 <0>         0.2016
      7 C6          2.0158   -1.2629    0.6115 C.ar      1 <0>        -0.0402
      8 C7          2.1821   -2.3595   -0.2044 C.ar      1 <0>        -0.0760
      9 C8          3.4552   -2.8182   -0.4961 C.ar      1 <0>        -0.0970
     10 C9          4.5627   -2.1772    0.0306 C.ar      1 <0>        -0.1122
     11 C10         4.4071   -1.0778    0.8486 C.ar      1 <0>        -0.0840
     12 C11         3.1254   -0.6085    1.1470 C.ar      1 <0>        -0.0690
     13 C12         2.6689    0.5305    1.9792 C.2       1 <0>         0.1664
     14 C13         1.3267    0.5988    1.9750 C.2       1 <0>        -0.0142
     15 N2          0.6568    1.5810    2.6799 N.pl3     1 <0>        -0.3439
     16 C14        -0.6618    1.8690    2.8364 C.2       1 <0>        -0.0328
     17 C15        -0.7392    2.9552    3.6456 C.2       1 <0>         0.0006
     18 N3          0.4970    3.3241    3.9762 N.2       1 <0>        -0.4071
     19 C16         1.3580    2.5083    3.4038 C.2       1 <0>         0.1367
     20 C17         2.8257    2.4310    3.4100 C.2       1 <0>         0.6003
     21 N4          3.4252    1.4541    2.7014 N.am      1 <0>        -0.6278
     22 O1          3.4870    3.2353    4.0411 O.2       1 <0>        -0.4812
     23 H1          1.0001    1.8414    0.1106 H         1 <0>         0.0654
     24 H2         -0.4490    1.8274   -0.9230 H         1 <0>         0.0780
     25 H3         -0.6194    1.8154    0.8487 H         1 <0>         0.0467
     26 H4         -2.0130    0.1463    0.6487 H         1 <0>         0.0512
     27 H5         -1.7732   -0.7732   -0.8687 H         1 <0>         0.0931
     28 H6         -2.1253   -2.1155    1.4545 H         1 <0>         0.0847
     29 H7         -0.8731   -2.6803    0.2983 H         1 <0>         0.0835
     30 H8         -0.5152   -0.9318    2.7976 H         1 <0>         0.0758
     31 H9          0.4664   -2.3390    2.2724 H         1 <0>         0.0889
     32 H10         1.3194   -2.8619   -0.6164 H         1 <0>         0.1328
     33 H11         3.5844   -3.6786   -1.1360 H         1 <0>         0.1350
     34 H12         5.5537   -2.5398   -0.1996 H         1 <0>         0.1343
     35 H13         5.2742   -0.5806    1.2576 H         1 <0>         0.1279
     36 H14        -1.4918    1.3338    2.3993 H         1 <0>         0.1858
     37 H15        -1.6496    3.4393    3.9670 H         1 <0>         0.1921
     38 H16         4.3931    1.3912    2.6949 H         1 <0>         0.4258
@<TRIPOS>BOND
     1    1    2 1
     2    1   23 1
     3    1   24 1
     4    1   25 1
     5    2    6 1
     6    2    3 1
     7    3    4 1
     8    3   26 1
     9    3   27 1
    10    4    5 1
    11    4   28 1
    12    4   29 1
    13    5    6 1
    14    5   30 1
    15    5   31 1
    16    6   14 1
    17    6    7 1
    18    7   12 ar
    19    7    8 ar
    20    8    9 ar
    21    8   32 1
    22    9   10 ar
    23    9   33 1
    24   10   11 ar
    25   10   34 1
    26   11   12 ar
    27   11   35 1
    28   12   13 1
    29   13   21 1
    30   13   14 2
    31   14   15 1
    32   15   19 1
    33   15   16 1
    34   16   17 2
    35   16   36 1
    36   17   18 1
    37   17   37 1
    38   18   19 2
    39   19   20 1
    40   20   21 am
    41   20   22 2
    42   21   38 1
@<TRIPOS>MOLECULE
CHEMBL15002
   30    33     0     0     0
SMALL
USER_CHARGES

@<TRIPOS>ATOM
      1 C1         -0.0168    1.3860    0.0097 C.ar      1 <0>        -0.1944
      2 C2          1.1637    2.0966    0.0022 C.ar      1 <0>        -0.0389
      3 C3          2.3860    1.4184   -0.0131 C.ar      1 <0>        -0.1116
      4 C4          2.3961    0.0237   -0.0207 C.ar      1 <0>        -0.0237
      5 C5          1.2170   -0.6831   -0.0133 C.ar      1 <0>        -0.1743
      6 C6          0.0021   -0.0041    0.0020 C.ar      1 <0>         0.2302
      7 N1         -1.1968   -0.7185    0.0101 N.pl3     1 <0>        -0.8732
      8 C7          3.8444   -0.3962   -0.0368 C.3       1 <0>        -0.0252
      9 C8          4.6423    0.8893   -0.0375 C.2       1 <0>         0.0068
     10 C9          3.7811    1.9187   -0.0238 C.2       1 <0>         0.1370
     11 N2          4.2458    3.2346   -0.0204 N.am      1 <0>        -0.6330
     12 C10         5.5669    3.4986   -0.0314 C.2       1 <0>         0.6060
     13 C11         6.5148    2.3701   -0.0465 C.2       1 <0>         0.0996
     14 N3          6.0108    1.0940   -0.0495 N.pl3     1 <0>        -0.3581
     15 C12         7.0565    0.2449   -0.0641 C.2       1 <0>         0.0010
     16 C13         8.2029    1.0198   -0.0709 C.2       1 <0>        -0.0163
     17 N4          7.8256    2.3093   -0.0590 N.2       1 <0>        -0.3681
     18 C14         9.5876    0.5208   -0.0868 C.2       1 <0>         0.5606
     19 O1          9.8039   -0.6834   -0.0954 O.co2     1 <0>        -0.6844
     20 O2         10.5223    1.3102   -0.0915 O.co2     1 <0>        -0.6631
     21 O3          5.9699    4.6470   -0.0292 O.2       1 <0>        -0.4970
     22 H1         -0.9604    1.9110    0.0260 H         1 <0>         0.1268
     23 H2          1.1447    3.1764    0.0078 H         1 <0>         0.1254
     24 H3          1.2333   -1.7629   -0.0196 H         1 <0>         0.1293
     25 H4         -2.0434   -0.2451    0.0211 H         1 <0>         0.4002
     26 H5         -1.1835   -1.6884    0.0048 H         1 <0>         0.4003
     27 H6          4.0763   -0.9829    0.8521 H         1 <0>         0.1139
     28 H7          4.0592   -0.9733   -0.9363 H         1 <0>         0.1139
     29 H8          7.0091   -0.8341   -0.0689 H         1 <0>         0.1933
     30 H9          3.6105    3.9675   -0.0104 H         1 <0>         0.4171
@<TRIPOS>BOND
     1    1    6 ar
     2    1    2 ar
     3    1   22 1
     4    2    3 ar
     5    2   23 1
     6    3   10 1
     7    3    4 ar
     8    4    5 ar
     9    4    8 1
    10    5    6 ar
    11    5   24 1
    12    6    7 1
    13    7   25 1
    14    7   26 1
    15    8    9 1
    16    8   27 1
    17    8   28 1
    18    9   14 1
    19    9   10 2
    20   10   11 1
    21   11   12 am
    22   11   30 1
    23   12   13 1
    24   12   21 2
    25   13   17 2
    26   13   14 1
    27   14   15 1
    28   15   16 2
    29   15   29 1
    30   16   17 1
    31   16   18 1
    32   18   19 2
    33   18   20 1
@<TRIPOS>MOLECULE
CHEMBL540067
   29    30     0     0     0
SMALL
USER_CHARGES

@<TRIPOS>ATOM
      1 C1         -0.0166    1.3754    0.0096 C.ar      1 <0>        -0.0967
      2 C2          1.1701    2.0892    0.0021 C.ar      1 <0>        -0.0911
      3 C3          2.3799    1.4261   -0.0134 C.ar      1 <0>        -0.1612
      4 C4          2.4115    0.0358   -0.0216 C.ar      1 <0>         0.0948
      5 C5          1.2153   -0.6836   -0.0141 C.ar      1 <0>         0.1269
      6 C6          0.0021   -0.0041    0.0020 C.ar      1 <0>        -0.1082
      7 N1          1.2259   -2.0756   -0.0225 N.am      1 <0>        -0.6356
      8 H1          0.3892   -2.5663   -0.0175 H         1 <0>         0.4263
      9 C7          2.3977   -2.7427   -0.0382 C.2       1 <0>         0.5088
     10 O1          2.4121   -3.9572   -0.0464 O.2       1 <0>        -0.4542
     11 C8          3.6759   -1.9740   -0.0457 C.2       1 <0>         0.5012
     12 O2          4.7418   -2.5562   -0.0601 O.2       1 <0>        -0.4395
     13 N2          3.6359   -0.6261   -0.0377 N.am      1 <0>        -0.5464
     14 C9          4.8830    0.1426   -0.0460 C.3       1 <0>         0.0963
     15 C10         5.3317    0.4021    1.3936 C.3       1 <0>        -0.0658
     16 H2          5.5798   -0.5448    1.8730 H         1 <0>         0.1415
     17 C11         6.5452    1.2956    1.3882 C.2       1 <0>         0.4957
     18 O3          6.4578    2.4448    1.7861 O.co2     1 <0>        -0.6637
     19 O4          7.6143    0.8694    0.9859 O.co2     1 <0>        -0.6215
     20 N3          4.2451    1.0563    2.1348 N.4       1 <0>        -0.6139
     21 H3         -0.9602    1.9006    0.0259 H         1 <0>         0.1423
     22 H4          1.1486    3.1690    0.0081 H         1 <0>         0.1441
     23 H5          3.3028    1.9870   -0.0196 H         1 <0>         0.1408
     24 H6         -0.9259   -0.5565    0.0079 H         1 <0>         0.1448
     25 H7          5.6540   -0.4214   -0.5708 H         1 <0>         0.1428
     26 H8          4.7201    1.0938   -0.5528 H         1 <0>         0.1170
     27 H9          3.4326    0.4580    2.1384 H         1 <0>         0.4100
     28 H10         4.5410    1.2274    3.0841 H         1 <0>         0.4352
     29 H11         4.0154    1.9328    1.6909 H         1 <0>         0.4290
@<TRIPOS>BOND
     1    1    6 ar
     2    1    2 ar
     3    1   21 1
     4    2    3 ar
     5    2   22 1
     6    3    4 ar
     7    3   23 1
     8    4   13 1
     9    4    5 ar
    10    5    6 ar
    11    5    7 1
    12    6   24 1
    13    7    8 1
    14    7    9 am
    15    9   10 2
    16    9   11 1
    17   11   12 2
    18   11   13 am
    19   13   14 1
    20   14   15 1
    21   14   25 1
    22   14   26 1
    23   15   16 1
    24   15   17 1
    25   15   20 1
    26   17   18 2
    27   17   19 1
    28   20   27 1
    29   20   28 1
    30   20   29 1
@<TRIPOS>MOLECULE
CHEMBL294792
   24    25     0     0     0
SMALL
USER_CHARGES

@<TRIPOS>ATOM
      1 C1          0.6706    1.2852   -1.6114 C.2       1 <0>        -0.0659
      2 C2          1.5476    2.0378   -0.7957 C.ar      1 <0>        -0.0538
      3 C3          1.2495    3.3729   -0.4788 C.ar      1 <0>         0.0044
      4 C4          2.1010    4.0906    0.3088 C.ar      1 <0>        -0.0347
      5 C5          3.2640    3.5125    0.8018 C.ar      1 <0>         0.0285
      6 C6          3.5789    2.2048    0.5048 C.ar      1 <0>        -0.0883
      7 C7          2.7261    1.4494   -0.2965 C.ar      1 <0>         0.2176
      8 N1          3.0381    0.1403   -0.5951 N.am      1 <0>        -0.6266
      9 C8          2.2275   -0.6055   -1.3688 C.2       1 <0>         0.5282
     10 C9          0.9894   -0.0304   -1.9077 C.2       1 <0>        -0.1429
     11 C10         0.1003   -0.8386   -2.7518 C.2       1 <0>         0.5237
     12 O1         -0.9297   -0.3511   -3.1982 O.co2     1 <0>        -0.6716
     13 O2          0.3891   -1.9998   -3.0088 O.co2     1 <0>        -0.6434
     14 O3          2.5214   -1.7599   -1.6211 O.2       1 <0>        -0.4550
     15 N2          4.1742    4.3098    1.6543 N.pl3     1 <0>         0.0256
     16 O4          5.3716    4.1879    1.5395 O.2       1 <0>        -0.1272
     17 O5          3.7203    5.0829    2.4654 O.3       1 <0>        -0.1255
     18 N3          1.7834    5.4977    0.6407 N.pl3     1 <0>         0.0296
     19 O6          0.6407    5.8229    0.8647 O.2       1 <0>        -0.1263
     20 O7          2.6667    6.3219    0.6878 O.3       1 <0>        -0.1356
     21 H1         -0.2369    1.7284   -1.9941 H         1 <0>         0.1664
     22 H2          0.3479    3.8307   -0.8582 H         1 <0>         0.1803
     23 H3          4.4861    1.7657    0.8929 H         1 <0>         0.1746
     24 H4          3.8538   -0.2490   -0.2429 H         1 <0>         0.4178
@<TRIPOS>BOND
     1    1   10 2
     2    1    2 1
     3    1   21 1
     4    2    7 ar
     5    2    3 ar
     6    3    4 ar
     7    3   22 1
     8    4    5 ar
     9    4   18 1
    10    5    6 ar
    11    5   15 1
    12    6    7 ar
    13    6   23 1
    14    7    8 1
    15    8    9 am
    16    8   24 1
    17    9   10 1
    18    9   14 2
    19   10   11 1
    20   11   12 2
    21   11   13 1
    22   15   16 2
    23   15   17 1
    24   18   19 2
    25   18   20 1
@<TRIPOS>MOLECULE
CHEMBL294792__1
   23    24     0     0     0
SMALL
USER_CHARGES

@<TRIPOS>ATOM
      1 C1          3.4720    2.0490    2.4697 C.ar      1 <0>        -0.0518
      2 C2          2.9556    2.3858    1.2068 C.ar      1 <0>        -0.1691
      3 C3          3.5847    3.3480    0.3979 C.ar      1 <0>         0.0290
      4 C4          3.0588    3.6509   -0.8208 C.ar      1 <0>        -0.1172
      5 C5          1.9037    3.0193   -1.2769 C.ar      1 <0>         0.0160
      6 C6          1.2689    2.0828   -0.5195 C.ar      1 <0>        -0.0519
      7 C7          1.7804    1.7417    0.7440 C.ar      1 <0>         0.2322
      8 N1          1.1709    0.8231    1.5032 N.ar      1 <0>        -0.5925
      9 C8          1.6323    0.4898    2.6869 C.ar      1 <0>         0.4529
     10 C9          2.7989    1.0881    3.2166 C.ar      1 <0>        -0.1965
     11 C10         3.2959    0.6979    4.5460 C.2       1 <0>         0.5255
     12 O1          4.3056    1.2195    4.9989 O.co2     1 <0>        -0.7118
     13 O2          2.6993   -0.1480    5.1981 O.co2     1 <0>        -0.6516
     14 O3          0.9775   -0.4452    3.4147 O.3       1 <0>        -0.5930
     15 N2          1.3574    3.3726   -2.6065 N.pl3     1 <0>         0.0375
     16 O4          0.1616    3.4460   -2.7686 O.2       1 <0>        -0.1559
     17 O5          2.1071    3.5879   -3.5303 O.3       1 <0>        -0.1538
     18 N3          3.7222    4.6643   -1.6716 N.pl3     1 <0>         0.0538
     19 O6          4.9291    4.7202   -1.7157 O.2       1 <0>        -0.1731
     20 O7          3.0572    5.4362   -2.3225 O.3       1 <0>        -0.1734
     21 H1          4.3678    2.5194    2.8473 H         1 <0>         0.1367
     22 H2          4.4802    3.8445    0.7415 H         1 <0>         0.1501
     23 H3          0.3743    1.6035   -0.8887 H         1 <0>         0.1578
@<TRIPOS>BOND
     1    1   10 ar
     2    1    2 ar
     3    1   21 1
     4    2    7 ar
     5    2    3 ar
     6    3    4 ar
     7    3   22 1
     8    4    5 ar
     9    4   18 1
    10    5    6 ar
    11    5   15 1
    12    6    7 ar
    13    6   23 1
    14    7    8 ar
    15    8    9 ar
    16    9   10 ar
    17    9   14 1
    18   10   11 1
    19   11   12 2
    20   11   13 1
    21   15   16 2
    22   15   17 1
    23   18   19 2
    24   18   20 1
@<TRIPOS>MOLECULE
CHEMBL294792__2
   24    25     0     0     0
SMALL
USER_CHARGES

@<TRIPOS>ATOM
      1 C1          3.4720    2.0490    2.4697 C.ar      1 <0>        -0.0078
      2 C2          2.9556    2.3858    1.2068 C.ar      1 <0>        -0.1071
      3 C3          3.5847    3.3480    0.3979 C.ar      1 <0>         0.0197
      4 C4          3.0588    3.6509   -0.8208 C.ar      1 <0>        -0.0368
      5 C5          1.9037    3.0193   -1.2769 C.ar      1 <0>        -0.0012
      6 C6          1.2689    2.0828   -0.5195 C.ar      1 <0>        -0.0006
      7 C7          1.7804    1.7417    0.7440 C.ar      1 <0>         0.1750
      8 N1          1.1709    0.8231    1.5032 N.ar      1 <0>        -0.5076
      9 C8          1.6323    0.4898    2.6869 C.ar      1 <0>         0.4139
     10 C9          2.7989    1.0881    3.2166 C.ar      1 <0>        -0.1681
     11 C10         3.2959    0.6979    4.5460 C.2       1 <0>         0.5227
     12 O1          4.3056    1.2195    4.9989 O.co2     1 <0>        -0.6699
     13 O2          2.6993   -0.1480    5.1981 O.co2     1 <0>        -0.6507
     14 O3          0.9775   -0.4452    3.4147 O.3       1 <0>        -0.4460
     15 N2          1.3574    3.3726   -2.6065 N.pl3     1 <0>         0.0277
     16 O4          0.1616    3.4460   -2.7686 O.2       1 <0>        -0.1289
     17 O5          2.1071    3.5879   -3.5303 O.3       1 <0>        -0.1304
     18 N3          3.7222    4.6643   -1.6716 N.pl3     1 <0>         0.0304
     19 O6          4.9291    4.7202   -1.7157 O.2       1 <0>        -0.1317
     20 O7          3.0572    5.4362   -2.3225 O.3       1 <0>        -0.1349
     21 H1          4.3678    2.5194    2.8473 H         1 <0>         0.1681
     22 H2          4.4802    3.8445    0.7415 H         1 <0>         0.1756
     23 H3          0.3743    1.6035   -0.8887 H         1 <0>         0.1775
     24 H4          1.2797   -1.3500    3.2559 H         1 <0>         0.4111
@<TRIPOS>BOND
     1    1   10 ar
     2    1    2 ar
     3    1   21 1
     4    2    7 ar
     5    2    3 ar
     6    3    4 ar
     7    3   22 1
     8    4    5 ar
     9    4   18 1
    10    5    6 ar
    11    5   15 1
    12    6    7 ar
    13    6   23 1
    14    7    8 ar
    15    8    9 ar
    16    9   10 ar
    17    9   14 1
    18   10   11 1
    19   11   12 2
    20   11   13 1
    21   14   24 1
    22   15   16 2
    23   15   17 1
    24   18   19 2
    25   18   20 1
@<TRIPOS>MOLECULE
CHEMBL300368
   39    39     0     0     0
SMALL
USER_CHARGES

@<TRIPOS>ATOM
      1 C1         -5.0145   -3.4645  -10.5104 C.3       1 <0>        -0.1420
      2 S1         -4.6136   -4.8283   -9.3835 S.3       1 <0>        -0.1284
      3 C2         -5.1702   -4.2598   -7.8113 C.ar      1 <0>        -0.0948
      4 C3         -5.7642   -3.0071   -7.6965 C.ar      1 <0>        -0.1314
      5 C4         -6.2007   -2.5603   -6.4686 C.ar      1 <0>        -0.1006
      6 C5         -6.0464   -3.3660   -5.3387 C.ar      1 <0>        -0.0378
      7 C6         -5.4498   -4.6229   -5.4569 C.ar      1 <0>        -0.0994
      8 C7         -5.0200   -5.0669   -6.6882 C.ar      1 <0>        -0.0915
      9 C8         -6.5130   -2.8893   -4.0205 C.2       1 <0>        -0.1613
     10 C9         -6.3659   -3.6557   -2.9481 C.2       1 <0>        -0.0939
     11 C10        -6.8419   -3.1694   -1.6035 C.3       1 <0>        -0.0745
     12 C11        -7.8055   -4.1946   -1.0023 C.3       1 <0>        -0.1644
     13 H1         -8.6151   -4.3885   -1.7059 H         1 <0>         0.0513
     14 C12        -8.3848   -3.6457    0.3031 C.3       1 <0>        -0.1020
     15 C13        -9.4542   -4.6050    0.8296 C.3       1 <0>        -0.0439
     16 H2         -9.0321   -5.6059    0.9192 H         1 <0>         0.1361
     17 C14        -9.9274   -4.1365    2.1815 C.2       1 <0>         0.4939
     18 O1        -10.8685   -3.3659    2.2646 O.co2     1 <0>        -0.6848
     19 O2         -9.3692   -4.5282    3.1922 O.co2     1 <0>        -0.6391
     20 N1        -10.5884   -4.6335   -0.1034 N.4       1 <0>        -0.6110
     21 C15        -7.0647   -5.4769   -0.7232 C.2       1 <0>         0.4957
     22 O3         -7.4265   -6.5165   -1.2474 O.co2     1 <0>        -0.7020
     23 O4         -6.1035   -5.4748    0.0269 O.co2     1 <0>        -0.6763
     24 H3         -4.7036   -3.7257  -11.5220 H         1 <0>         0.1067
     25 H4         -6.0895   -3.2850  -10.4956 H         1 <0>         0.0823
     26 H5         -4.4912   -2.5634  -10.1908 H         1 <0>         0.0824
     27 H6         -5.8830   -2.3841   -8.5707 H         1 <0>         0.1204
     28 H7         -6.6614   -1.5875   -6.3799 H         1 <0>         0.1248
     29 H8         -5.3293   -5.2482   -4.5846 H         1 <0>         0.1352
     30 H9         -4.5622   -6.0407   -6.7809 H         1 <0>         0.1280
     31 H10        -6.9740   -1.9169   -3.9302 H         1 <0>         0.1159
     32 H11        -5.9049   -4.6282   -3.0384 H         1 <0>         0.1179
     33 H12        -5.9867   -3.0417   -0.9397 H         1 <0>         0.0880
     34 H13        -7.3548   -2.2151   -1.7229 H         1 <0>         0.0589
     35 H14        -7.5887   -3.5485    1.0413 H         1 <0>         0.1073
     36 H15        -8.8316   -2.6686    0.1198 H         1 <0>         0.0683
     37 H16       -10.9792   -3.7070   -0.1863 H         1 <0>         0.4243
     38 H17       -10.2716   -4.9472   -1.0086 H         1 <0>         0.4186
     39 H18       -11.2937   -5.2661    0.2438 H         1 <0>         0.4232
@<TRIPOS>BOND
     1    1    2 1
     2    1   24 1
     3    1   25 1
     4    1   26 1
     5    2    3 1
     6    3    8 ar
     7    3    4 ar
     8    4    5 ar
     9    4   27 1
    10    5    6 ar
    11    5   28 1
    12    6    7 ar
    13    6    9 1
    14    7    8 ar
    15    7   29 1
    16    8   30 1
    17    9   10 2
    18    9   31 1
    19   10   11 1
    20   10   32 1
    21   11   12 1
    22   11   33 1
    23   11   34 1
    24   12   13 1
    25   12   14 1
    26   12   21 1
    27   14   15 1
    28   14   35 1
    29   14   36 1
    30   15   16 1
    31   15   17 1
    32   15   20 1
    33   17   18 2
    34   17   19 1
    35   20   37 1
    36   20   38 1
    37   20   39 1
    38   21   22 2
    39   21   23 1
@<TRIPOS>MOLECULE
CHEMBL292896
   45    46     0     0     0
SMALL
USER_CHARGES

@<TRIPOS>ATOM
      1 C1         -0.0167    1.3791    0.0096 C.ar      1 <0>        -0.1258
      2 C2          1.1686    2.0923    0.0021 C.ar      1 <0>        -0.1184
      3 C3          2.3774    1.4266   -0.0130 C.ar      1 <0>        -0.1156
      4 C4          2.4025    0.0329   -0.0207 C.ar      1 <0>        -0.0354
      5 C5          1.2049   -0.6804   -0.0131 C.ar      1 <0>        -0.1141
      6 C6          0.0021   -0.0041    0.0020 C.ar      1 <0>        -0.1167
      7 C7          3.6982   -0.6881   -0.0375 C.ar      1 <0>        -0.0641
      8 C8          4.8947    0.0287   -0.0398 C.ar      1 <0>        -0.1074
      9 C9          6.0983   -0.6399   -0.0558 C.ar      1 <0>        -0.1172
     10 C10         6.1208   -2.0362   -0.0693 C.ar      1 <0>        -0.0312
     11 C11         4.9223   -2.7530   -0.0665 C.ar      1 <0>        -0.1159
     12 C12         3.7197   -2.0827   -0.0452 C.ar      1 <0>        -0.1014
     13 C13         7.4114   -2.7543   -0.0870 C.2       1 <0>        -0.1624
     14 C14         7.4323   -4.0805   -0.0998 C.2       1 <0>        -0.0939
     15 C15         8.7491   -4.8133   -0.1178 C.3       1 <0>        -0.0746
     16 C16         8.8023   -5.7954    1.0541 C.3       1 <0>        -0.1647
     17 H1          8.6152   -5.2606    1.9852 H         1 <0>         0.0514
     18 C17        10.1848   -6.4485    1.1099 C.3       1 <0>        -0.1019
     19 C18        10.2800   -7.3356    2.3528 C.3       1 <0>        -0.0437
     20 H2          9.4600   -8.0537    2.3503 H         1 <0>         0.1358
     21 C19        11.5939   -8.0736    2.3438 C.2       1 <0>         0.4940
     22 O1         12.5748   -7.5785    2.8722 O.co2     1 <0>        -0.6848
     23 O2         11.6760   -9.1657    1.8081 O.co2     1 <0>        -0.6392
     24 N1         10.1958   -6.5003    3.5582 N.4       1 <0>        -0.6111
     25 C20         7.7515   -6.8592    0.8661 C.2       1 <0>         0.4955
     26 O3          7.7789   -7.5756   -0.1201 O.co2     1 <0>        -0.6761
     27 O4          6.8740   -7.0034    1.7001 O.co2     1 <0>        -0.7022
     28 H3         -0.9603    1.9042    0.0260 H         1 <0>         0.1204
     29 H4          1.1480    3.1720    0.0078 H         1 <0>         0.1219
     30 H5          3.3022    1.9844   -0.0192 H         1 <0>         0.1244
     31 H6          1.2184   -1.7603   -0.0194 H         1 <0>         0.1264
     32 H7         -0.9264   -0.5557    0.0079 H         1 <0>         0.1230
     33 H8          4.8771    1.1085   -0.0293 H         1 <0>         0.1226
     34 H9          7.0246   -0.0847   -0.0583 H         1 <0>         0.1236
     35 H10         4.9387   -3.8328   -0.0770 H         1 <0>         0.1314
     36 H11         2.7928   -2.6369   -0.0386 H         1 <0>         0.1249
     37 H12         8.3381   -2.1996   -0.0895 H         1 <0>         0.1159
     38 H13         6.5057   -4.6353   -0.0973 H         1 <0>         0.1178
     39 H14         8.8475   -5.3605   -1.0553 H         1 <0>         0.0876
     40 H15         9.5651   -4.0962   -0.0283 H         1 <0>         0.0593
     41 H16        10.3360   -7.0558    0.2175 H         1 <0>         0.1073
     42 H17        10.9507   -5.6743    1.1566 H         1 <0>         0.0683
     43 H18         9.3161   -6.0062    3.5643 H         1 <0>         0.4188
     44 H19        10.2586   -7.0854    4.3779 H         1 <0>         0.4231
     45 H20        10.9549   -5.8356    3.5605 H         1 <0>         0.4243
@<TRIPOS>BOND
     1    1    6 ar
     2    1    2 ar
     3    1   28 1
     4    2    3 ar
     5    2   29 1
     6    3    4 ar
     7    3   30 1
     8    4    5 ar
     9    4    7 1
    10    5    6 ar
    11    5   31 1
    12    6   32 1
    13    7   12 ar
    14    7    8 ar
    15    8    9 ar
    16    8   33 1
    17    9   10 ar
    18    9   34 1
    19   10   11 ar
    20   10   13 1
    21   11   12 ar
    22   11   35 1
    23   12   36 1
    24   13   14 2
    25   13   37 1
    26   14   15 1
    27   14   38 1
    28   15   16 1
    29   15   39 1
    30   15   40 1
    31   16   17 1
    32   16   18 1
    33   16   25 1
    34   18   19 1
    35   18   41 1
    36   18   42 1
    37   19   20 1
    38   19   21 1
    39   19   24 1
    40   21   22 2
    41   21   23 1
    42   24   43 1
    43   24   44 1
    44   24   45 1
    45   25   26 2
    46   25   27 1
@<TRIPOS>MOLECULE
CHEMBL301915
   35    35     0     0     0
SMALL
USER_CHARGES

@<TRIPOS>ATOM
      1 C1         -1.3500   -1.7978   -6.5048 C.ar      1 <0>        -0.1153
      2 C2         -0.8016   -2.0971   -7.7347 C.ar      1 <0>        -0.0895
      3 C3          0.1133   -3.1290   -7.8552 C.ar      1 <0>        -0.1022
      4 C4          0.4838   -3.8663   -6.7436 C.ar      1 <0>        -0.0836
      5 C5         -0.0578   -3.5765   -5.5084 C.ar      1 <0>        -0.1145
      6 C6         -0.9805   -2.5374   -5.3807 C.ar      1 <0>        -0.0181
      7 C7         -1.5641   -2.2215   -4.0600 C.2       1 <0>        -0.1675
      8 C8         -1.2112   -2.9259   -2.9937 C.2       1 <0>        -0.0860
      9 C9         -1.8062   -2.6038   -1.6472 C.3       1 <0>        -0.0760
     10 C10        -2.4469   -3.8623   -1.0585 C.3       1 <0>        -0.1649
     11 H1         -3.1692   -4.2677   -1.7671 H         1 <0>         0.0512
     12 C11        -3.1585   -3.5085    0.2489 C.3       1 <0>        -0.1012
     13 C12        -3.9195   -4.7323    0.7628 C.3       1 <0>        -0.0448
     14 H2         -3.2354   -5.5769    0.8461 H         1 <0>         0.1367
     15 C13        -4.5072   -4.4266    2.1164 C.2       1 <0>         0.4954
     16 O1         -5.7135   -4.3029    2.2434 O.co2     1 <0>        -0.6896
     17 O2         -3.7764   -4.3028    3.0844 O.co2     1 <0>        -0.6366
     18 N1         -4.9990   -5.0672   -0.1755 N.4       1 <0>        -0.6095
     19 C14        -1.3786   -4.8898   -0.7868 C.2       1 <0>         0.4953
     20 O3         -1.4378   -5.9858   -1.3176 O.co2     1 <0>        -0.7023
     21 O4         -0.4550   -4.6251   -0.0361 O.co2     1 <0>        -0.6753
     22 Br1         0.8595   -3.5336   -9.5450 Br        1 <0>        -0.0618
     23 H3         -2.0606   -0.9899   -6.4113 H         1 <0>         0.1308
     24 H4         -1.0868   -1.5253   -8.6055 H         1 <0>         0.1298
     25 H5          1.1980   -4.6703   -6.8436 H         1 <0>         0.1323
     26 H6          0.2314   -4.1528   -4.6420 H         1 <0>         0.1380
     27 H7         -2.2780   -1.4169   -3.9636 H         1 <0>         0.1186
     28 H8         -0.4973   -3.7305   -3.0901 H         1 <0>         0.1185
     29 H9         -1.0218   -2.2488   -0.9788 H         1 <0>         0.0897
     30 H10        -2.5646   -1.8292   -1.7609 H         1 <0>         0.0599
     31 H11        -2.4224   -3.2002    0.9914 H         1 <0>         0.1114
     32 H12        -3.8595   -2.6928    0.0718 H         1 <0>         0.0653
     33 H13        -5.6322   -4.2855   -0.2526 H         1 <0>         0.4227
     34 H14        -4.6055   -5.2720   -1.0817 H         1 <0>         0.4177
     35 H15        -5.5008   -5.8744    0.1634 H         1 <0>         0.4251
@<TRIPOS>BOND
     1    1    6 ar
     2    1    2 ar
     3    1   23 1
     4    2    3 ar
     5    2   24 1
     6    3    4 ar
     7    3   22 1
     8    4    5 ar
     9    4   25 1
    10    5    6 ar
    11    5   26 1
    12    6    7 1
    13    7    8 2
    14    7   27 1
    15    8    9 1
    16    8   28 1
    17    9   10 1
    18    9   29 1
    19    9   30 1
    20   10   11 1
    21   10   12 1
    22   10   19 1
    23   12   13 1
    24   12   31 1
    25   12   32 1
    26   13   14 1
    27   13   15 1
    28   13   18 1
    29   15   16 2
    30   15   17 1
    31   18   33 1
    32   18   34 1
    33   18   35 1
    34   19   20 2
    35   19   21 1
@<TRIPOS>MOLECULE
CHEMBL374553
   38    39     0     0     0
SMALL
USER_CHARGES

@<TRIPOS>ATOM
      1 C1          1.1975    1.8460    0.8859 C.ar      1 <0>        -0.1239
      2 C2          0.9860    2.3434   -0.3883 C.ar      1 <0>        -0.1388
      3 C3          0.8519    1.4804   -1.4554 C.ar      1 <0>        -0.0765
      4 C4          0.9304    0.1007   -1.2480 C.ar      1 <0>        -0.1241
      5 C5          1.1445   -0.3941    0.0408 C.ar      1 <0>        -0.0611
      6 C6          1.2763    0.4811    1.0988 C.ar      1 <0>        -0.1366
      7 C7          1.2302   -1.8803    0.2747 C.3       1 <0>         0.1689
      8 N1          1.3663   -2.1417    1.7098 N.am      1 <0>        -0.5422
      9 C8          2.5884   -2.1409    2.2794 C.2       1 <0>         0.5464
     10 O1          3.5799   -1.9238    1.6066 O.2       1 <0>        -0.4668
     11 C9          2.7082   -2.3944    3.6678 C.2       1 <0>        -0.2458
     12 C10         1.5925   -2.6317    4.3909 C.2       1 <0>         0.1581
     13 N2          0.3704   -2.6235    3.7738 N.am      1 <0>        -0.5485
     14 C11         0.2703   -2.3762    2.4551 C.2       1 <0>         0.6817
     15 O2         -0.8255   -2.3688    1.9282 O.2       1 <0>        -0.4963
     16 C12        -0.8401   -2.8809    4.5577 C.3       1 <0>         0.1076
     17 C13        -1.3877   -1.5589    5.0992 C.3       1 <0>        -0.0684
     18 H1         -1.7103   -0.9316    4.2682 H         1 <0>         0.1470
     19 C14        -2.5600   -1.8342    6.0053 C.2       1 <0>         0.4988
     20 O3         -2.4572   -1.6546    7.2068 O.co2     1 <0>        -0.6673
     21 O4         -3.6113   -2.2366    5.5368 O.co2     1 <0>        -0.6201
     22 N3         -0.3361   -0.8665    5.8559 N.4       1 <0>        -0.6149
     23 Br1         4.4074   -2.4010    4.4976 Br        1 <0>         0.0234
     24 C15         0.7875   -0.8290   -2.3846 C.2       1 <0>         0.5201
     25 O5          0.4868   -0.4015   -3.4902 O.co2     1 <0>        -0.6794
     26 O6          0.9696   -2.0272   -2.2212 O.co2     1 <0>        -0.6804
     27 H2          1.3059    2.5267    1.7173 H         1 <0>         0.1108
     28 H3          0.9255    3.4099   -0.5471 H         1 <0>         0.1165
     29 H4          0.6862    1.8698   -2.4490 H         1 <0>         0.1303
     30 H5          1.4415    0.1001    2.0958 H         1 <0>         0.0923
     31 H6          0.3249   -2.3596   -0.0977 H         1 <0>         0.1290
     32 H7          2.0964   -2.2816   -0.2514 H         1 <0>         0.1276
     33 H8          1.6640   -2.8273    5.4506 H         1 <0>         0.1849
     34 H9         -1.5906   -3.3523    3.9231 H         1 <0>         0.1501
     35 H10        -0.6002   -3.5428    5.3898 H         1 <0>         0.1205
     36 H11        -0.6972    0.0054    6.2130 H         1 <0>         0.4384
     37 H12        -0.0375   -1.4471    6.6252 H         1 <0>         0.4299
     38 H13         0.4488   -0.6821    5.2493 H         1 <0>         0.4091
@<TRIPOS>BOND
     1    1    6 ar
     2    1    2 ar
     3    1   27 1
     4    2    3 ar
     5    2   28 1
     6    3    4 ar
     7    3   29 1
     8    4    5 ar
     9    4   24 1
    10    5    6 ar
    11    5    7 1
    12    6   30 1
    13    7    8 1
    14    7   31 1
    15    7   32 1
    16    8   14 am
    17    8    9 am
    18    9   10 2
    19    9   11 1
    20   11   12 2
    21   11   23 1
    22   12   13 1
    23   12   33 1
    24   13   14 am
    25   13   16 1
    26   14   15 2
    27   16   17 1
    28   16   34 1
    29   16   35 1
    30   17   18 1
    31   17   19 1
    32   17   22 1
    33   19   20 2
    34   19   21 1
    35   22   36 1
    36   22   37 1
    37   22   38 1
    38   24   25 2
    39   24   26 1
@<TRIPOS>MOLECULE
CHEMBL416685
   62    66     0     0     0
SMALL
USER_CHARGES

@<TRIPOS>ATOM
      1 C1         -0.1597    1.5360    0.9315 C.ar      1 <0>        -0.1129
      2 C2          1.0310    2.2242    0.7919 C.ar      1 <0>        -0.1157
      3 C3          2.2129    1.5307    0.6103 C.ar      1 <0>        -0.1117
      4 C4          2.2042    0.1490    0.5688 C.ar      1 <0>        -0.0935
      5 C5          1.0136   -0.5392    0.7093 C.ar      1 <0>        -0.1141
      6 C6         -0.1685    0.1543    0.8895 C.ar      1 <0>        -0.1137
      7 C7          3.4926   -0.6070    0.3698 C.3       1 <0>        -0.0530
      8 C8          3.3966   -1.4572   -0.9003 C.3       1 <0>        -0.1397
      9 C9          4.6762   -2.2821   -1.0533 C.3       1 <0>        -0.0051
     10 N1          4.8400   -3.1586    0.1127 N.4       1 <0>        -0.3842
     11 C10         5.0046   -2.3484    1.3255 C.3       1 <0>        -0.0064
     12 C11         3.7376   -1.5261    1.5701 C.3       1 <0>        -0.1403
     13 C12         6.0269   -4.0037   -0.0748 C.3       1 <0>         0.0843
     14 C13         6.1272   -4.9880    1.0619 C.2       1 <0>        -0.2394
     15 C14         6.8010   -4.7855    2.2831 C.2       1 <0>        -0.1713
     16 C15         6.6491   -5.9050    3.0197 C.2       1 <0>         0.0165
     17 N2          5.9049   -6.7932    2.2972 N.pl3     1 <0>        -0.3951
     18 C16         5.5837   -6.2217    1.0993 C.2       1 <0>         0.0906
     19 C17         5.5287   -8.0772    2.7177 C.ar      1 <0>         0.1835
     20 C18         4.7950   -8.2364    3.8823 C.ar      1 <0>        -0.1150
     21 C19         4.4214   -9.5079    4.2995 C.ar      1 <0>         0.2286
     22 C20         4.7883  -10.6224    3.5416 C.ar      1 <0>         0.1247
     23 C21         5.5251  -10.4530    2.3744 C.ar      1 <0>        -0.0410
     24 C22         5.8876   -9.1878    1.9623 C.ar      1 <0>        -0.0604
     25 N3          6.6661   -9.0123    0.7156 N.pl3     1 <0>         0.0424
     26 O1          6.8766   -9.9606   -0.0042 O.2       1 <0>        -0.1528
     27 O2          7.0915   -7.9207    0.4172 O.3       1 <0>        -0.1540
     28 N4          4.4228  -11.9042    3.9452 N.am      1 <0>        -0.6322
     29 H1          4.6824  -12.6722    3.4125 H         1 <0>         0.4272
     30 C23         3.7088  -12.0795    5.0756 C.2       1 <0>         0.5175
     31 O3          3.3884  -13.1957    5.4319 O.2       1 <0>        -0.4515
     32 C24         3.3169  -10.8893    5.8841 C.2       1 <0>         0.5087
     33 O4          2.6740  -11.0263    6.9055 O.2       1 <0>        -0.4338
     34 N5          3.6844   -9.6596    5.4706 N.am      1 <0>        -0.4906
     35 C25         3.3073   -8.4813    6.2552 C.3       1 <0>         0.0155
     36 C26         1.9728   -7.9673    5.7799 C.2       1 <0>         0.4869
     37 O5          1.3906   -8.5329    4.8701 O.co2     1 <0>        -0.6764
     38 O6          1.4752   -6.9859    6.3051 O.co2     1 <0>        -0.6754
     39 H2         -1.0825    2.0777    1.0779 H         1 <0>         0.1254
     40 H3          1.0378    3.3037    0.8243 H         1 <0>         0.1252
     41 H4          3.1431    2.0684    0.5005 H         1 <0>         0.1223
     42 H5          1.0067   -1.6187    0.6765 H         1 <0>         0.1200
     43 H6         -1.0988   -0.3833    0.9989 H         1 <0>         0.1263
     44 H7          4.3183    0.0983    0.2762 H         1 <0>         0.0938
     45 H8          2.5390   -2.1259   -0.8267 H         1 <0>         0.0890
     46 H9          3.2777   -0.8058   -1.7661 H         1 <0>         0.1103
     47 H10         4.6113   -2.8884   -1.9568 H         1 <0>         0.1294
     48 H11         5.5331   -1.6124   -1.1271 H         1 <0>         0.1275
     49 H12         5.1822   -3.0037    2.1783 H         1 <0>         0.1380
     50 H13         5.8545   -1.6773    1.2011 H         1 <0>         0.1250
     51 H14         3.8625   -0.9239    2.4700 H         1 <0>         0.1110
     52 H15         2.8871   -2.1963    1.6949 H         1 <0>         0.0896
     53 H16         5.9426   -4.5445   -1.0174 H         1 <0>         0.1305
     54 H17         6.9192   -3.3780   -0.0934 H         1 <0>         0.1323
     55 H18         7.3405   -3.8968    2.5754 H         1 <0>         0.1500
     56 H19         7.0472   -6.0704    4.0099 H         1 <0>         0.1739
     57 H20         4.9979   -6.6796    0.3160 H         1 <0>         0.1633
     58 H21         4.5138   -7.3722    4.4659 H         1 <0>         0.1708
     59 H22         5.8101  -11.3135    1.7872 H         1 <0>         0.1758
     60 H23         3.2378   -8.7531    7.3084 H         1 <0>         0.1088
     61 H24         4.0615   -7.7044    6.1294 H         1 <0>         0.0939
     62 H25         4.0242   -3.7445    0.2089 H         1 <0>         0.4209
@<TRIPOS>BOND
     1    1    6 ar
     2    1    2 ar
     3    1   39 1
     4    2    3 ar
     5    2   40 1
     6    3    4 ar
     7    3   41 1
     8    4    5 ar
     9    4    7 1
    10    5    6 ar
    11    5   42 1
    12    6   43 1
    13    7   12 1
    14    7    8 1
    15    7   44 1
    16    8    9 1
    17    8   45 1
    18    8   46 1
    19    9   10 1
    20    9   47 1
    21    9   48 1
    22   10   11 1
    23   10   13 1
    24   10   62 1
    25   11   12 1
    26   11   49 1
    27   11   50 1
    28   12   51 1
    29   12   52 1
    30   13   14 1
    31   13   53 1
    32   13   54 1
    33   14   18 2
    34   14   15 1
    35   15   16 2
    36   15   55 1
    37   16   17 1
    38   16   56 1
    39   17   18 1
    40   17   19 1
    41   18   57 1
    42   19   24 ar
    43   19   20 ar
    44   20   21 ar
    45   20   58 1
    46   21   34 1
    47   21   22 ar
    48   22   23 ar
    49   22   28 1
    50   23   24 ar
    51   23   59 1
    52   24   25 1
    53   25   26 2
    54   25   27 1
    55   28   29 1
    56   28   30 am
    57   30   31 2
    58   30   32 1
    59   32   33 2
    60   32   34 am
    61   34   35 1
    62   35   36 1
    63   35   60 1
    64   35   61 1
    65   36   37 2
    66   36   38 1
@<TRIPOS>MOLECULE
CHEMBL416685__1
   61    65     0     0     0
SMALL
USER_CHARGES

@<TRIPOS>ATOM
      1 C1          0.3255    1.7894    1.0873 C.ar      1 <0>        -0.1156
      2 C2          1.5454    2.4316    0.9851 C.ar      1 <0>        -0.1165
      3 C3          2.7017    1.6948    0.8090 C.ar      1 <0>        -0.1120
      4 C4          2.6381    0.3159    0.7355 C.ar      1 <0>        -0.0888
      5 C5          1.4184   -0.3263    0.8386 C.ar      1 <0>        -0.1139
      6 C6          0.2619    0.4105    1.0133 C.ar      1 <0>        -0.1149
      7 C7          3.8986   -0.4873    0.5425 C.3       1 <0>        -0.0552
      8 C8          3.7926   -1.3043   -0.7484 C.3       1 <0>        -0.1381
      9 C9          5.0408   -2.1769   -0.8973 C.3       1 <0>        -0.0058
     10 N1          5.1470   -3.0851    0.2510 N.4       1 <0>        -0.3820
     11 C10         5.3210   -2.3096    1.4850 C.3       1 <0>        -0.0078
     12 C11         4.0836   -1.4420    1.7255 C.3       1 <0>        -0.1371
     13 C12         6.3022   -3.9734    0.0656 C.3       1 <0>         0.0873
     14 C13         6.3413   -4.9860    1.1810 C.2       1 <0>        -0.2510
     15 C14         6.9995   -4.8382    2.4187 C.2       1 <0>        -0.1944
     16 C15         6.7889   -5.9664    3.1265 C.2       1 <0>         0.0635
     17 N2          6.0233   -6.8077    2.3704 N.pl3     1 <0>        -0.3636
     18 C16         5.7481   -6.1969    1.1800 C.2       1 <0>         0.0479
     19 C17         5.5883   -8.0820    2.7539 C.ar      1 <0>         0.0870
     20 C18         5.9235   -9.1845    1.9860 C.ar      1 <0>        -0.1045
     21 C19         5.4915  -10.4487    2.3672 C.ar      1 <0>         0.1396
     22 C20         4.7159  -10.5997    3.5317 C.ar      1 <0>         0.1873
     23 C21         4.3881   -9.4686    4.2944 C.ar      1 <0>        -0.0610
     24 C22         4.8245   -8.2353    3.9102 C.ar      1 <0>        -0.0424
     25 N3          4.4794   -7.0483    4.7245 N.pl3     1 <0>         0.0502
     26 O1          3.9231   -7.1864    5.7890 O.2       1 <0>        -0.1737
     27 O2          4.7541   -5.9407    4.3252 O.3       1 <0>        -0.1820
     28 N4          4.2879  -11.8187    3.9177 N.2       1 <0>        -0.6061
     29 C23         4.5804  -12.8865    3.2238 C.2       1 <0>         0.4333
     30 O3          4.1381  -14.1007    3.6323 O.3       1 <0>        -0.6076
     31 C24         5.3891  -12.7733    1.9987 C.2       1 <0>         0.4782
     32 O4          5.6649  -13.7646    1.3479 O.2       1 <0>        -0.4977
     33 N5          5.8220  -11.5551    1.6065 N.am      1 <0>        -0.4871
     34 C25         6.6285  -11.4084    0.3924 C.3       1 <0>         0.0242
     35 C26         8.0893  -11.5307    0.7418 C.2       1 <0>         0.4872
     36 O5          8.4256  -11.7228    1.8979 O.co2     1 <0>        -0.6725
     37 O6          8.9349  -11.4377   -0.1316 O.co2     1 <0>        -0.6966
     38 H1         -0.5774    2.3648    1.2293 H         1 <0>         0.1238
     39 H2          1.5950    3.5089    1.0425 H         1 <0>         0.1241
     40 H3          3.6546    2.1965    0.7284 H         1 <0>         0.1224
     41 H4          1.3687   -1.4036    0.7808 H         1 <0>         0.1207
     42 H5         -0.6911   -0.0912    1.0934 H         1 <0>         0.1249
     43 H6          4.7537    0.1858    0.4801 H         1 <0>         0.0932
     44 H7          2.9076   -1.9391   -0.7058 H         1 <0>         0.0878
     45 H8          3.7165   -0.6295   -1.6011 H         1 <0>         0.1074
     46 H9          4.9687   -2.7598   -1.8155 H         1 <0>         0.1279
     47 H10         5.9251   -1.5411   -0.9401 H         1 <0>         0.1255
     48 H11         5.4558   -2.9904    2.3255 H         1 <0>         0.1461
     49 H12         6.1993   -1.6709    1.3914 H         1 <0>         0.1219
     50 H13         4.2156   -0.8657    2.6412 H         1 <0>         0.1090
     51 H14         3.2047   -2.0797    1.8195 H         1 <0>         0.0881
     52 H15         6.2142   -4.4892   -0.8905 H         1 <0>         0.1262
     53 H16         7.2192   -3.3842    0.0775 H         1 <0>         0.1276
     54 H17         7.5687   -3.9788    2.7409 H         1 <0>         0.1412
     55 H18         7.1616   -6.1698    4.1196 H         1 <0>         0.1584
     56 H19         5.1593   -6.6130    0.3758 H         1 <0>         0.1649
     57 H20         6.5187   -9.0619    1.0932 H         1 <0>         0.1452
     58 H21         3.7933   -9.5755    5.1895 H         1 <0>         0.1615
     59 H22         6.3587  -12.1884   -0.3196 H         1 <0>         0.0946
     60 H23         6.4419  -10.4306   -0.0518 H         1 <0>         0.0790
     61 H24         4.3066   -3.6394    0.3190 H         1 <0>         0.4204
@<TRIPOS>BOND
     1    1    6 ar
     2    1    2 ar
     3    1   38 1
     4    2    3 ar
     5    2   39 1
     6    3    4 ar
     7    3   40 1
     8    4    5 ar
     9    4    7 1
    10    5    6 ar
    11    5   41 1
    12    6   42 1
    13    7   12 1
    14    7    8 1
    15    7   43 1
    16    8    9 1
    17    8   44 1
    18    8   45 1
    19    9   10 1
    20    9   46 1
    21    9   47 1
    22   10   11 1
    23   10   13 1
    24   10   61 1
    25   11   12 1
    26   11   48 1
    27   11   49 1
    28   12   50 1
    29   12   51 1
    30   13   14 1
    31   13   52 1
    32   13   53 1
    33   14   18 2
    34   14   15 1
    35   15   16 2
    36   15   54 1
    37   16   17 1
    38   16   55 1
    39   17   18 1
    40   17   19 1
    41   18   56 1
    42   19   24 ar
    43   19   20 ar
    44   20   21 ar
    45   20   57 1
    46   21   33 1
    47   21   22 ar
    48   22   23 ar
    49   22   28 1
    50   23   24 ar
    51   23   58 1
    52   24   25 1
    53   25   26 2
    54   25   27 1
    55   28   29 2
    56   29   30 1
    57   29   31 1
    58   31   32 2
    59   31   33 am
    60   33   34 1
    61   34   35 1
    62   34   59 1
    63   34   60 1
    64   35   36 2
    65   35   37 1
@<TRIPOS>MOLECULE
CHEMBL27130
   31    31     0     0     0
SMALL
USER_CHARGES

@<TRIPOS>ATOM
      1 C1          0.1871    1.5230    0.3906 C.3       1 <0>        -0.1511
      2 C2         -0.0351    0.0093    0.3781 C.3       1 <0>         0.0012
      3 C3          0.7595   -0.6322    1.5174 C.3       1 <0>        -0.1419
      4 C4         -1.5242   -0.2891    0.5637 C.3       1 <0>        -0.1392
      5 C5          0.4301   -0.5558   -0.9392 C.2       1 <0>         0.0805
      6 C6          1.6467   -0.3837   -1.4862 C.2       1 <0>        -0.3365
      7 C7          1.6753   -1.0741   -2.7176 C.2       1 <0>         0.3551
      8 N1          0.5080   -1.6369   -2.8903 N.2       1 <0>        -0.4444
      9 O1         -0.2958   -1.3231   -1.7673 O.3       1 <0>        -0.1209
     10 O2          2.7283   -1.1412   -3.5711 O.3       1 <0>        -0.7290
     11 C8          2.7812    0.4087   -0.8894 C.3       1 <0>        -0.0366
     12 C9          2.7788    1.8225   -1.4742 C.3       1 <0>        -0.0430
     13 H1          1.7969    2.2735   -1.3304 H         1 <0>         0.1229
     14 C10         3.8217    2.6567   -0.7759 C.2       1 <0>         0.4923
     15 O3          4.9600    2.6987   -1.2106 O.co2     1 <0>        -0.6743
     16 O4          3.5272    3.2895    0.2238 O.co2     1 <0>        -0.6505
     17 N2          3.0832    1.7592   -2.9099 N.4       1 <0>        -0.6032
     18 H2          1.2566    1.7332    0.3931 H         1 <0>         0.0801
     19 H3         -0.2679    1.9644   -0.4961 H         1 <0>         0.0538
     20 H4         -0.2692    1.9499    1.2838 H         1 <0>         0.0658
     21 H5          0.3552   -0.3008    2.4739 H         1 <0>         0.0652
     22 H6          0.6835   -1.7173    1.4473 H         1 <0>         0.0582
     23 H7          1.8057   -0.3356    1.4427 H         1 <0>         0.0654
     24 H8         -2.0903    0.1679   -0.2480 H         1 <0>         0.0587
     25 H9         -1.6825   -1.3676    0.5548 H         1 <0>         0.0603
     26 H10        -1.8607    0.1196    1.5165 H         1 <0>         0.0590
     27 H11         2.6572    0.4626    0.1921 H         1 <0>         0.0973
     28 H12         3.7275   -0.0794   -1.1228 H         1 <0>         0.0833
     29 H13         3.1789    2.6949   -3.2750 H         1 <0>         0.4138
     30 H14         3.9455    1.2541   -3.0489 H         1 <0>         0.4346
     31 H15         2.3342    1.2850   -3.3919 H         1 <0>         0.4228
@<TRIPOS>BOND
     1    1    2 1
     2    1   18 1
     3    1   19 1
     4    1   20 1
     5    2    3 1
     6    2    4 1
     7    2    5 1
     8    3   21 1
     9    3   22 1
    10    3   23 1
    11    4   24 1
    12    4   25 1
    13    4   26 1
    14    5    6 2
    15    5    9 1
    16    6    7 1
    17    6   11 1
    18    7    8 2
    19    7   10 1
    20    8    9 1
    21   11   12 1
    22   11   27 1
    23   11   28 1
    24   12   13 1
    25   12   14 1
    26   12   17 1
    27   14   15 2
    28   14   16 1
    29   17   29 1
    30   17   30 1
    31   17   31 1
@<TRIPOS>MOLECULE
CHEMBL58590
   35    35     0     0     0
SMALL
USER_CHARGES

@<TRIPOS>ATOM
      1 C1         -1.3502   -1.7977   -6.5048 C.ar      1 <0>        -0.1083
      2 C2         -0.8019   -2.0969   -7.7347 C.ar      1 <0>        -0.1094
      3 C3          0.1135   -3.1288   -7.8552 C.ar      1 <0>        -0.0461
      4 C4          0.4836   -3.8665   -6.7434 C.ar      1 <0>        -0.1033
      5 C5         -0.0584   -3.5768   -5.5084 C.ar      1 <0>        -0.1073
      6 C6         -0.9806   -2.5374   -5.3807 C.ar      1 <0>        -0.0300
      7 C7         -1.5642   -2.2214   -4.0600 C.2       1 <0>        -0.1650
      8 C8         -1.2114   -2.9258   -2.9937 C.2       1 <0>        -0.0891
      9 C9         -1.8064   -2.6037   -1.6472 C.3       1 <0>        -0.0754
     10 C10        -2.4471   -3.8621   -1.0585 C.3       1 <0>        -0.1648
     11 H1         -3.1694   -4.2676   -1.7671 H         1 <0>         0.0511
     12 C11        -3.1587   -3.5083    0.2489 C.3       1 <0>        -0.1012
     13 C12        -3.9197   -4.7321    0.7628 C.3       1 <0>        -0.0449
     14 H2         -3.2357   -5.5767    0.8461 H         1 <0>         0.1366
     15 C13        -4.5074   -4.4263    2.1164 C.2       1 <0>         0.4955
     16 O1         -5.7137   -4.3026    2.2434 O.co2     1 <0>        -0.6897
     17 O2         -3.7767   -4.3026    3.0844 O.co2     1 <0>        -0.6367
     18 N1         -4.9993   -5.0670   -0.1755 N.4       1 <0>        -0.6095
     19 C14        -1.3788   -4.8897   -0.7868 C.2       1 <0>         0.4954
     20 O3         -1.4381   -5.9857   -1.3176 O.co2     1 <0>        -0.7025
     21 O4         -0.4552   -4.6251   -0.0361 O.co2     1 <0>        -0.6754
     22 Cl1         0.7994   -3.4995   -9.4063 Cl        1 <0>        -0.0802
     23 H3         -2.0607   -0.9897   -6.4112 H         1 <0>         0.1311
     24 H4         -1.0874   -1.5253   -8.6055 H         1 <0>         0.1305
     25 H5          1.1978   -4.6705   -6.8434 H         1 <0>         0.1331
     26 H6          0.2305   -4.1533   -4.6420 H         1 <0>         0.1384
     27 H7         -2.2781   -1.4168   -3.9636 H         1 <0>         0.1180
     28 H8         -0.4975   -3.7305   -3.0901 H         1 <0>         0.1181
     29 H9         -1.0219   -2.2488   -0.9788 H         1 <0>         0.0893
     30 H10        -2.5647   -1.8290   -1.7609 H         1 <0>         0.0595
     31 H11        -2.4226   -3.2001    0.9914 H         1 <0>         0.1114
     32 H12        -3.8597   -2.6926    0.0719 H         1 <0>         0.0653
     33 H13        -5.6324   -4.2852   -0.2526 H         1 <0>         0.4227
     34 H14        -4.6058   -5.2717   -1.0817 H         1 <0>         0.4178
     35 H15        -5.5011   -5.8741    0.1634 H         1 <0>         0.4251
@<TRIPOS>BOND
     1    1    6 ar
     2    1    2 ar
     3    1   23 1
     4    2    3 ar
     5    2   24 1
     6    3    4 ar
     7    3   22 1
     8    4    5 ar
     9    4   25 1
    10    5    6 ar
    11    5   26 1
    12    6    7 1
    13    7    8 2
    14    7   27 1
    15    8    9 1
    16    8   28 1
    17    9   10 1
    18    9   29 1
    19    9   30 1
    20   10   11 1
    21   10   12 1
    22   10   19 1
    23   12   13 1
    24   12   31 1
    25   12   32 1
    26   13   14 1
    27   13   15 1
    28   13   18 1
    29   15   16 2
    30   15   17 1
    31   18   33 1
    32   18   34 1
    33   18   35 1
    34   19   20 2
    35   19   21 1
@<TRIPOS>MOLECULE
CHEMBL373428
   38    39     0     0     0
SMALL
USER_CHARGES

@<TRIPOS>ATOM
      1 C1         -0.0344    1.5033   -0.0787 C.3       1 <0>        -0.0901
      2 C2         -0.0039   -0.0029   -0.0388 C.2       1 <0>        -0.2239
      3 C3         -1.1535   -0.7094    0.0088 C.2       1 <0>         0.1055
      4 N1         -1.1077   -2.0765    0.0446 N.am      1 <0>        -0.5536
      5 C4          0.0720   -2.7232    0.0333 C.2       1 <0>         0.6826
      6 O1          0.0897   -3.9385    0.0661 O.2       1 <0>        -0.5046
      7 N2          1.2330   -2.0438   -0.0142 N.am      1 <0>        -0.5448
      8 C5          1.2304   -0.6961   -0.0566 C.2       1 <0>         0.5402
      9 O2          2.2802   -0.0807   -0.1048 O.2       1 <0>        -0.4900
     10 C6          2.5043   -2.7717   -0.0256 C.3       1 <0>         0.1878
     11 C7          2.8631   -3.1341   -1.4437 C.2       1 <0>        -0.1280
     12 C8          2.1269   -2.6990   -2.5169 C.2       1 <0>        -0.1579
     13 C9          2.5058   -3.0628   -3.7686 C.2       1 <0>        -0.2878
     14 S1          3.8740   -4.0074   -3.5272 S.3       1 <0>         0.1975
     15 C10         3.9639   -3.9255   -1.7486 C.2       1 <0>        -0.1683
     16 C11         4.9102   -4.5157   -0.8735 C.2       1 <0>         0.5485
     17 O3          4.7561   -4.4360    0.3391 O.co2     1 <0>        -0.6668
     18 O4          5.8820   -5.1055   -1.3299 O.co2     1 <0>        -0.6773
     19 C12        -2.3550   -2.8432    0.0962 C.3       1 <0>         0.1090
     20 C13        -2.8249   -3.1491   -1.3273 C.3       1 <0>        -0.0662
     21 H1         -2.1035   -3.8046   -1.8151 H         1 <0>         0.1440
     22 C14        -4.1686   -3.8297   -1.2774 C.2       1 <0>         0.4961
     23 O5         -5.1901   -3.1646   -1.3015 O.co2     1 <0>        -0.6659
     24 O6         -4.2341   -5.0455   -1.2130 O.co2     1 <0>        -0.6216
     25 N3         -2.9386   -1.8960   -2.0853 N.4       1 <0>        -0.6148
     26 H2          0.9852    1.8864   -0.1193 H         1 <0>         0.0851
     27 H3         -0.5816    1.8323   -0.9622 H         1 <0>         0.0711
     28 H4         -0.5290    1.8805    0.8164 H         1 <0>         0.0743
     29 H5         -2.1047   -0.1980    0.0189 H         1 <0>         0.1753
     30 H6          3.2871   -2.1423    0.3977 H         1 <0>         0.1158
     31 H7          2.4080   -3.6805    0.5684 H         1 <0>         0.1207
     32 H8          1.2576   -2.0759   -2.3677 H         1 <0>         0.0986
     33 H9          2.0351   -2.8044   -4.7056 H         1 <0>         0.1717
     34 H10        -2.1853   -3.7775    0.6315 H         1 <0>         0.1419
     35 H11        -3.1179   -2.2615    0.6136 H         1 <0>         0.1193
     36 H12        -3.2485   -2.0977   -3.0241 H         1 <0>         0.4347
     37 H13        -3.6065   -1.2892   -1.6338 H         1 <0>         0.4306
     38 H14        -2.0390   -1.4403   -2.1187 H         1 <0>         0.4110
@<TRIPOS>BOND
     1    1    2 1
     2    1   26 1
     3    1   27 1
     4    1   28 1
     5    2    8 1
     6    2    3 2
     7    3    4 1
     8    3   29 1
     9    4    5 am
    10    4   19 1
    11    5    6 2
    12    5    7 am
    13    7    8 am
    14    7   10 1
    15    8    9 2
    16   10   11 1
    17   10   30 1
    18   10   31 1
    19   11   15 2
    20   11   12 1
    21   12   13 2
    22   12   32 1
    23   13   14 1
    24   13   33 1
    25   14   15 1
    26   15   16 1
    27   16   17 2
    28   16   18 1
    29   19   20 1
    30   19   34 1
    31   19   35 1
    32   20   21 1
    33   20   22 1
    34   20   25 1
    35   22   23 2
    36   22   24 1
    37   25   36 1
    38   25   37 1
    39   25   38 1
@<TRIPOS>MOLECULE
CHEMBL553028
   33    34     0     0     0
SMALL
USER_CHARGES

@<TRIPOS>ATOM
      1 C1         -0.0187    1.5258    0.0104 C.3       1 <0>        -0.1720
      2 C2          0.0021   -0.0041    0.0020 C.3       1 <0>        -0.0100
      3 C3         -1.4306   -0.5331    0.1270 C.3       1 <0>        -0.1025
      4 C4         -1.8819   -0.4433    1.5898 C.3       1 <0>        -0.0917
      5 C5         -1.5424    0.8474    2.2742 C.2       1 <0>        -0.1479
      6 C6         -0.3072    1.0118    2.7462 C.2       1 <0>        -0.0130
      7 C7          0.6968   -0.0216    2.4174 C.2       1 <0>        -0.2335
      8 C8          0.8342   -0.4990    1.1545 C.2       1 <0>         0.0915
      9 O1          1.7895   -1.4265    1.1496 O.3       1 <0>        -0.0532
     10 N1          2.3278   -1.5565    2.4548 N.am      1 <0>        -0.5835
     11 C9          1.6641   -0.6966    3.2653 C.2       1 <0>         0.5388
     12 O2          1.8429   -0.5243    4.4594 O.2       1 <0>        -0.4785
     13 C10         0.0536    2.2101    3.5858 C.3       1 <0>        -0.0502
     14 C11        -0.0639    1.8485    5.0678 C.3       1 <0>         0.0197
     15 H1          0.5478    0.9710    5.2773 H         1 <0>         0.0956
     16 C12         0.4138    3.0057    5.9066 C.2       1 <0>         0.4648
     17 O3         -0.3733    3.8656    6.2638 O.co2     1 <0>        -0.7057
     18 O4          1.5874    3.0821    6.2281 O.co2     1 <0>        -0.6985
     19 N2         -1.4668    1.5559    5.3907 N.3       1 <0>        -0.8253
     20 H2          1.0025    1.9027    0.0665 H         1 <0>         0.0592
     21 H3         -0.4899    1.8878   -0.9033 H         1 <0>         0.0678
     22 H4         -0.5834    1.8767    0.8741 H         1 <0>         0.0966
     23 H5          0.4356   -0.3550   -0.9344 H         1 <0>         0.0896
     24 H6         -2.0948    0.0662   -0.4957 H         1 <0>         0.0818
     25 H7         -1.4642   -1.5721   -0.2007 H         1 <0>         0.0698
     26 H8         -2.9630   -0.5783    1.6256 H         1 <0>         0.0675
     27 H9         -1.4183   -1.2594    2.1440 H         1 <0>         0.0612
     28 H10        -2.2826    1.6265    2.3817 H         1 <0>         0.1215
     29 H11         1.0773    2.5130    3.3658 H         1 <0>         0.0635
     30 H12        -0.6254    3.0315    3.3573 H         1 <0>         0.0657
     31 H13        -1.5617    1.2519    6.3481 H         1 <0>         0.3270
     32 H14        -2.0548    2.3546    5.2049 H         1 <0>         0.3312
     33 H15         3.0434   -2.1550    2.7205 H         1 <0>         0.4527
@<TRIPOS>BOND
     1    1    2 1
     2    1   20 1
     3    1   21 1
     4    1   22 1
     5    2    8 1
     6    2    3 1
     7    2   23 1
     8    3    4 1
     9    3   24 1
    10    3   25 1
    11    4    5 1
    12    4   26 1
    13    4   27 1
    14    5    6 2
    15    5   28 1
    16    6    7 1
    17    6   13 1
    18    7   11 1
    19    7    8 2
    20    8    9 1
    21    9   10 1
    22   10   11 am
    23   10   33 1
    24   11   12 2
    25   13   14 1
    26   13   29 1
    27   13   30 1
    28   14   15 1
    29   14   16 1
    30   14   19 1
    31   16   17 2
    32   16   18 1
    33   19   31 1
    34   19   32 1
@<TRIPOS>MOLECULE
CHEMBL553028__1
   33    34     0     0     0
SMALL
USER_CHARGES

@<TRIPOS>ATOM
      1 C1         -0.0187    1.5258    0.0104 C.3       1 <0>        -0.1627
      2 C2          0.0021   -0.0041    0.0020 C.3       1 <0>        -0.0187
      3 C3         -1.4310   -0.5336    0.1288 C.3       1 <0>        -0.0992
      4 C4         -1.8794   -0.4436    1.5926 C.3       1 <0>        -0.0834
      5 C5         -1.5386    0.8467    2.2771 C.2       1 <0>        -0.2188
      6 C6         -0.3026    1.0101    2.7474 C.2       1 <0>        -0.0042
      7 C7          0.7000   -0.0234    2.4154 C.2       1 <0>        -0.2969
      8 C8          0.8334   -0.4989    1.1534 C.2       1 <0>         0.0755
      9 O1          1.7919   -1.4271    1.1624 O.3       1 <0>        -0.1256
     10 N1          2.3146   -1.5402    2.4755 N.2       1 <0>        -0.4476
     11 C9          1.6716   -0.7037    3.2550 C.2       1 <0>         0.3812
     12 O2          1.8742   -0.5112    4.5824 O.3       1 <0>        -0.6970
     13 C10         0.0601    2.2072    3.5880 C.3       1 <0>        -0.0763
     14 C11        -0.0551    1.8436    5.0697 C.3       1 <0>        -0.0569
     15 H1          0.5565    0.9656    5.2771 H         1 <0>         0.1754
     16 C12         0.4245    2.9995    5.9093 C.2       1 <0>         0.4944
     17 O3         -0.3616    3.8593    6.2690 O.co2     1 <0>        -0.6907
     18 O4          1.5987    3.0749    6.2290 O.co2     1 <0>        -0.6333
     19 N2         -1.4576    1.5512    5.3946 N.4       1 <0>        -0.6105
     20 H2          1.0026    1.9027    0.0662 H         1 <0>         0.0555
     21 H3         -0.4902    1.8878   -0.9032 H         1 <0>         0.0567
     22 H4         -0.5831    1.8767    0.8743 H         1 <0>         0.0848
     23 H5          0.4351   -0.3552   -0.9346 H         1 <0>         0.0804
     24 H6         -2.0964    0.0656   -0.4927 H         1 <0>         0.0707
     25 H7         -1.4650   -1.5728   -0.1985 H         1 <0>         0.0672
     26 H8         -2.9604   -0.5784    1.6305 H         1 <0>         0.0581
     27 H9         -1.4151   -1.2600    2.1458 H         1 <0>         0.0673
     28 H10        -2.2783    1.6260    2.3861 H         1 <0>         0.1134
     29 H11         1.0836    2.5099    3.3667 H         1 <0>         0.1062
     30 H12        -0.6189    3.0292    3.3617 H         1 <0>         0.0782
     31 H13        -1.5336    1.3115    6.3717 H         1 <0>         0.4245
     32 H14        -2.0238    2.3641    5.2027 H         1 <0>         0.4201
     33 H15        -1.7787    0.7773    4.8324 H         1 <0>         0.4124
@<TRIPOS>BOND
     1    1    2 1
     2    1   20 1
     3    1   21 1
     4    1   22 1
     5    2    8 1
     6    2    3 1
     7    2   23 1
     8    3    4 1
     9    3   24 1
    10    3   25 1
    11    4    5 1
    12    4   26 1
    13    4   27 1
    14    5    6 2
    15    5   28 1
    16    6    7 1
    17    6   13 1
    18    7   11 1
    19    7    8 2
    20    8    9 1
    21    9   10 1
    22   10   11 2
    23   11   12 1
    24   13   14 1
    25   13   29 1
    26   13   30 1
    27   14   15 1
    28   14   16 1
    29   14   19 1
    30   16   17 2
    31   16   18 1
    32   19   31 1
    33   19   32 1
    34   19   33 1
@<TRIPOS>MOLECULE
CHEMBL553028__2
   33    34     0     0     0
SMALL
USER_CHARGES

@<TRIPOS>ATOM
      1 C1         -0.0187    1.5258    0.0104 C.3       1 <0>        -0.1537
      2 C2          0.0021   -0.0041    0.0020 C.3       1 <0>        -0.0148
      3 C3          0.7092   -0.4964   -1.2651 C.3       1 <0>        -0.1021
      4 C4          1.1354   -1.9574   -1.0767 C.3       1 <0>        -0.0923
      5 C5          0.0927   -2.8416   -0.4598 C.2       1 <0>        -0.1491
      6 C6         -0.0608   -2.8169    0.8636 C.2       1 <0>        -0.0182
      7 C7          0.6915   -1.7966    1.6232 C.2       1 <0>        -0.2358
      8 C8          0.7304   -0.5008    1.2220 C.2       1 <0>         0.0930
      9 O1          1.4899    0.1874    2.0720 O.3       1 <0>        -0.0500
     10 N1          1.9567   -0.6771    3.0942 N.am      1 <0>        -0.5841
     11 C9          1.4784   -1.9191    2.8383 C.2       1 <0>         0.5391
     12 O2          1.6682   -2.9302    3.4933 O.2       1 <0>        -0.4784
     13 C10        -0.9703   -3.7950    1.5614 C.3       1 <0>        -0.0499
     14 C11        -0.1523   -4.9910    2.0527 C.3       1 <0>         0.0198
     15 H1          0.6679   -4.6380    2.6779 H         1 <0>         0.0955
     16 C12        -1.0372   -5.9090    2.8560 C.2       1 <0>         0.4648
     17 O3         -1.6428   -6.8106    2.3021 O.co2     1 <0>        -0.7058
     18 O4         -1.1475   -5.7499    4.0597 O.co2     1 <0>        -0.6987
     19 N2          0.3904   -5.7202    0.8987 N.3       1 <0>        -0.8253
     20 H2          1.0039    1.9031    0.0027 H         1 <0>         0.0621
     21 H3         -0.5459    1.8868   -0.8726 H         1 <0>         0.0689
     22 H4         -0.5289    1.8773    0.9072 H         1 <0>         0.0621
     23 H5         -1.0210   -0.3800    0.0132 H         1 <0>         0.1135
     24 H6          0.0284   -0.4229   -2.1131 H         1 <0>         0.0805
     25 H7          1.5900    0.1180   -1.4517 H         1 <0>         0.0709
     26 H8          1.4017   -2.3669   -2.0511 H         1 <0>         0.0673
     27 H9          2.0230   -1.9785   -0.4444 H         1 <0>         0.0610
     28 H10        -0.5204   -3.4839   -1.0747 H         1 <0>         0.1202
     29 H11        -1.4457   -3.3061    2.4118 H         1 <0>         0.0630
     30 H12        -1.7356   -4.1394    0.8659 H         1 <0>         0.0655
     31 H13         0.9875   -6.4768    1.1972 H         1 <0>         0.3269
     32 H14        -0.3508   -6.0579    0.3032 H         1 <0>         0.3312
     33 H15         2.5191   -0.4247    3.8432 H         1 <0>         0.4528
@<TRIPOS>BOND
     1    1    2 1
     2    1   20 1
     3    1   21 1
     4    1   22 1
     5    2    8 1
     6    2    3 1
     7    2   23 1
     8    3    4 1
     9    3   24 1
    10    3   25 1
    11    4    5 1
    12    4   26 1
    13    4   27 1
    14    5    6 2
    15    5   28 1
    16    6    7 1
    17    6   13 1
    18    7   11 1
    19    7    8 2
    20    8    9 1
    21    9   10 1
    22   10   11 am
    23   10   33 1
    24   11   12 2
    25   13   14 1
    26   13   29 1
    27   13   30 1
    28   14   15 1
    29   14   16 1
    30   14   19 1
    31   16   17 2
    32   16   18 1
    33   19   31 1
    34   19   32 1
@<TRIPOS>MOLECULE
CHEMBL553028__3
   33    34     0     0     0
SMALL
USER_CHARGES

@<TRIPOS>ATOM
      1 C1         -0.0187    1.5258    0.0104 C.3       1 <0>        -0.1473
      2 C2          0.0021   -0.0041    0.0020 C.3       1 <0>        -0.0193
      3 C3          0.7111   -0.4969   -1.2647 C.3       1 <0>        -0.0991
      4 C4          1.1374   -1.9576   -1.0740 C.3       1 <0>        -0.0845
      5 C5          0.0952   -2.8421   -0.4568 C.2       1 <0>        -0.2201
      6 C6         -0.0586   -2.8161    0.8665 C.2       1 <0>        -0.0090
      7 C7          0.6923   -1.7938    1.6245 C.2       1 <0>        -0.3015
      8 C8          0.7297   -0.5006    1.2209 C.2       1 <0>         0.0767
      9 O1          1.4934    0.1769    2.0801 O.3       1 <0>        -0.1211
     10 N1          1.9487   -0.7066    3.0912 N.2       1 <0>        -0.4484
     11 C9          1.4806   -1.9061    2.8401 C.2       1 <0>         0.3815
     12 O2          1.6902   -3.0292    3.5714 O.3       1 <0>        -0.6972
     13 C10        -0.9660   -3.7954    1.5656 C.3       1 <0>        -0.0754
     14 C11        -0.1453   -4.9889    2.0585 C.3       1 <0>        -0.0570
     15 H1          0.6740   -4.6332    2.6833 H         1 <0>         0.1753
     16 C12        -1.0282   -5.9077    2.8631 C.2       1 <0>         0.4944
     17 O3         -1.6318   -6.8114    2.3104 O.co2     1 <0>        -0.6909
     18 O4         -1.1390   -5.7473    4.0666 O.co2     1 <0>        -0.6334
     19 N2          0.3991   -5.7184    0.9055 N.4       1 <0>        -0.6103
     20 H2          1.0039    1.9031    0.0027 H         1 <0>         0.0618
     21 H3         -0.5459    1.8868   -0.8726 H         1 <0>         0.0573
     22 H4         -0.5289    1.8773    0.9072 H         1 <0>         0.0599
     23 H5         -1.0209   -0.3802    0.0126 H         1 <0>         0.0924
     24 H6          0.0311   -0.4245   -2.1135 H         1 <0>         0.0691
     25 H7          1.5920    0.1176   -1.4508 H         1 <0>         0.0687
     26 H8          1.4048   -2.3682   -2.0476 H         1 <0>         0.0580
     27 H9          2.0246   -1.9775   -0.4410 H         1 <0>         0.0672
     28 H10        -0.5172   -3.4854   -1.0712 H         1 <0>         0.1120
     29 H11        -1.4425   -3.3063    2.4153 H         1 <0>         0.1056
     30 H12        -1.7305   -4.1424    0.8705 H         1 <0>         0.0778
     31 H13         0.9403   -6.5055    1.2306 H         1 <0>         0.4243
     32 H14        -0.3594   -6.0476    0.3272 H         1 <0>         0.4201
     33 H15         0.9902   -5.1032    0.3669 H         1 <0>         0.4124
@<TRIPOS>BOND
     1    1    2 1
     2    1   20 1
     3    1   21 1
     4    1   22 1
     5    2    8 1
     6    2    3 1
     7    2   23 1
     8    3    4 1
     9    3   24 1
    10    3   25 1
    11    4    5 1
    12    4   26 1
    13    4   27 1
    14    5    6 2
    15    5   28 1
    16    6    7 1
    17    6   13 1
    18    7   11 1
    19    7    8 2
    20    8    9 1
    21    9   10 1
    22   10   11 2
    23   11   12 1
    24   13   14 1
    25   13   29 1
    26   13   30 1
    27   14   15 1
    28   14   16 1
    29   14   19 1
    30   16   17 2
    31   16   18 1
    32   19   31 1
    33   19   32 1
    34   19   33 1
@<TRIPOS>MOLECULE
CHEMBL67828
   67    71     0     0     0
SMALL
USER_CHARGES

@<TRIPOS>ATOM
      1 C1         -0.0053    2.0799    0.9485 C.ar      1 <0>        -0.1062
      2 C2          1.2262    2.6942    0.8190 C.ar      1 <0>        -0.1151
      3 C3          2.3690    1.9290    0.6794 C.ar      1 <0>        -0.1104
      4 C4          2.2803    0.5495    0.6699 C.ar      1 <0>        -0.1058
      5 C5          1.0488   -0.0648    0.8003 C.ar      1 <0>        -0.1090
      6 C6         -0.0941    0.7004    0.9384 C.ar      1 <0>        -0.1141
      7 C7          3.5260   -0.2846    0.5168 C.3       1 <0>        -0.0989
      8 C8          4.1101   -0.5873    1.8981 C.3       1 <0>        -0.0056
      9 N1          5.3244   -1.4004    1.7489 N.4       1 <0>        -0.3852
     10 C9          4.9711   -2.7075    1.1796 C.3       1 <0>        -0.0068
     11 C10         6.2381   -3.5479    1.0064 C.3       1 <0>         0.0269
     12 N2          6.8888   -3.7229    2.3126 N.3       1 <0>        -0.5353
     13 C11         7.2260   -2.4214    2.9063 C.3       1 <0>         0.0272
     14 C12         5.9508   -1.5902    3.0638 C.3       1 <0>        -0.0038
     15 C13         8.0809   -4.5735    2.1972 C.3       1 <0>         0.1384
     16 C14         8.5778   -4.9316    3.5741 C.2       1 <0>        -0.1755
     17 C15         9.5082   -4.2015    4.3407 C.2       1 <0>        -0.1824
     18 C16         9.6780   -4.8596    5.5055 C.2       1 <0>         0.0024
     19 N3          8.8853   -5.9714    5.4868 N.pl3     1 <0>        -0.4066
     20 C17         8.2091   -6.0061    4.3009 C.2       1 <0>         0.0730
     21 C18         8.7794   -6.9176    6.5166 C.ar      1 <0>         0.1990
     22 C19         8.3854   -6.5195    7.7840 C.ar      1 <0>        -0.1195
     23 C20         8.2798   -7.4563    8.8046 C.ar      1 <0>         0.2267
     24 C21         8.5722   -8.7978    8.5481 C.ar      1 <0>         0.1176
     25 C22         8.9673   -9.1880    7.2731 C.ar      1 <0>        -0.0415
     26 C23         9.0643   -8.2545    6.2626 C.ar      1 <0>        -0.0624
     27 N4          9.4788   -8.6760    4.9056 N.pl3     1 <0>         0.0416
     28 O1          9.6111   -9.8506    4.6514 O.2       1 <0>        -0.1637
     29 O2          9.6851   -7.8458    4.0513 O.3       1 <0>        -0.1422
     30 N5          8.4721   -9.7500    9.5595 N.am      1 <0>        -0.6315
     31 H1          8.6775  -10.6792    9.3719 H         1 <0>         0.4260
     32 C24         8.0904   -9.3820   10.7993 C.2       1 <0>         0.5175
     33 O3          8.0024  -10.2089   11.6848 O.2       1 <0>        -0.4568
     34 C25         7.7778   -7.9498   11.0726 C.2       1 <0>         0.5090
     35 O4          7.4326   -7.5983   12.1829 O.2       1 <0>        -0.4395
     36 N6          7.8834   -7.0485   10.0752 N.am      1 <0>        -0.4910
     37 C26         7.5804   -5.6379   10.3292 C.3       1 <0>         0.0169
     38 C27         6.1187   -5.3827   10.0660 C.2       1 <0>         0.4878
     39 O5          5.3969   -6.2947    9.7002 O.co2     1 <0>        -0.6758
     40 O6          5.6579   -4.2643   10.2189 O.co2     1 <0>        -0.6792
     41 H2         -0.8977    2.6776    1.0620 H         1 <0>         0.1283
     42 H3          1.2955    3.7719    0.8264 H         1 <0>         0.1281
     43 H4          3.3311    2.4090    0.5776 H         1 <0>         0.1236
     44 H5          0.9794   -1.1425    0.7925 H         1 <0>         0.1246
     45 H6         -1.0563    0.2204    1.0399 H         1 <0>         0.1288
     46 H7          3.2777   -1.2196    0.0144 H         1 <0>         0.0945
     47 H8          4.2592    0.2627   -0.0757 H         1 <0>         0.0930
     48 H9          4.3583    0.3477    2.4005 H         1 <0>         0.1315
     49 H10         3.3769   -1.1345    2.4906 H         1 <0>         0.1325
     50 H11         4.2828   -3.2219    1.8503 H         1 <0>         0.1378
     51 H12         4.4945   -2.5646    0.2098 H         1 <0>         0.1325
     52 H13         5.9745   -4.5235    0.5979 H         1 <0>         0.1214
     53 H14         6.9209   -3.0404    0.3251 H         1 <0>         0.0572
     54 H15         7.6831   -2.5750    3.8839 H         1 <0>         0.1317
     55 H16         7.9251   -1.8952    2.2562 H         1 <0>         0.0563
     56 H17         6.2006   -0.6190    3.4909 H         1 <0>         0.1335
     57 H18         5.2575   -2.1103    3.7249 H         1 <0>         0.1389
     58 H19         7.8264   -5.4840    1.6546 H         1 <0>         0.0902
     59 H20         8.8606   -4.0352    1.6582 H         1 <0>         0.0520
     60 H21         9.9962   -3.2834    4.0486 H         1 <0>         0.1372
     61 H22        10.3285   -4.5593    6.3136 H         1 <0>         0.1647
     62 H23         7.5030   -6.7645    3.9965 H         1 <0>         0.1544
     63 H24         8.1609   -5.4812    7.9785 H         1 <0>         0.1688
     64 H25         9.1942  -10.2247    7.0728 H         1 <0>         0.1735
     65 H26         7.8099   -5.3982   11.3674 H         1 <0>         0.1071
     66 H27         8.1828   -5.0125    9.6702 H         1 <0>         0.0939
     67 H28         5.9706   -0.9295    1.1335 H         1 <0>         0.4177
@<TRIPOS>BOND
     1    1    6 ar
     2    1    2 ar
     3    1   41 1
     4    2    3 ar
     5    2   42 1
     6    3    4 ar
     7    3   43 1
     8    4    5 ar
     9    4    7 1
    10    5    6 ar
    11    5   44 1
    12    6   45 1
    13    7    8 1
    14    7   46 1
    15    7   47 1
    16    8    9 1
    17    8   48 1
    18    8   49 1
    19    9   14 1
    20    9   10 1
    21    9   67 1
    22   10   11 1
    23   10   50 1
    24   10   51 1
    25   11   12 1
    26   11   52 1
    27   11   53 1
    28   12   13 1
    29   12   15 1
    30   13   14 1
    31   13   54 1
    32   13   55 1
    33   14   56 1
    34   14   57 1
    35   15   16 1
    36   15   58 1
    37   15   59 1
    38   16   20 2
    39   16   17 1
    40   17   18 2
    41   17   60 1
    42   18   19 1
    43   18   61 1
    44   19   20 1
    45   19   21 1
    46   20   62 1
    47   21   26 ar
    48   21   22 ar
    49   22   23 ar
    50   22   63 1
    51   23   36 1
    52   23   24 ar
    53   24   25 ar
    54   24   30 1
    55   25   26 ar
    56   25   64 1
    57   26   27 1
    58   27   28 2
    59   27   29 1
    60   30   31 1
    61   30   32 am
    62   32   33 2
    63   32   34 1
    64   34   35 2
    65   34   36 am
    66   36   37 1
    67   37   38 1
    68   37   65 1
    69   37   66 1
    70   38   39 2
    71   38   40 1
@<TRIPOS>MOLECULE
CHEMBL67828__1
   66    70     0     0     0
SMALL
USER_CHARGES

@<TRIPOS>ATOM
      1 C1          0.5598    2.4458    0.7924 C.ar      1 <0>        -0.1080
      2 C2          1.8144    3.0210    0.7148 C.ar      1 <0>        -0.1157
      3 C3          2.9361    2.2206    0.6044 C.ar      1 <0>        -0.1105
      4 C4          2.8031    0.8450    0.5719 C.ar      1 <0>        -0.1030
      5 C5          1.5486    0.2698    0.6504 C.ar      1 <0>        -0.1091
      6 C6          0.4268    1.0702    0.7594 C.ar      1 <0>        -0.1146
      7 C7          4.0258   -0.0275    0.4505 C.3       1 <0>        -0.1005
      8 C8          4.5505   -0.3674    1.8470 C.3       1 <0>        -0.0045
      9 N1          5.7424   -1.2179    1.7286 N.4       1 <0>        -0.3857
     10 C9          5.3674   -2.5051    1.1286 C.3       1 <0>        -0.0052
     11 C10         6.6119   -3.3843    0.9878 C.3       1 <0>         0.0253
     12 N2          7.2099   -3.5978    2.3133 N.3       1 <0>        -0.5321
     13 C11         7.5678   -2.3160    2.9371 C.3       1 <0>         0.0264
     14 C12         6.3154   -1.4456    3.0618 C.3       1 <0>        -0.0017
     15 C13         8.3772   -4.4855    2.2275 C.3       1 <0>         0.1425
     16 C14         8.8132   -4.8778    3.6156 C.2       1 <0>        -0.1870
     17 C15         9.7392   -4.1887    4.4247 C.2       1 <0>        -0.2071
     18 C16         9.8464   -4.8671    5.5851 C.2       1 <0>         0.0519
     19 N3          9.0191   -5.9522    5.5229 N.pl3     1 <0>        -0.3793
     20 C17         8.3844   -5.9490    4.3134 C.2       1 <0>         0.0317
     21 C18         8.8463   -6.9060    6.5331 C.ar      1 <0>         0.1090
     22 C19         9.1044   -8.2411    6.2714 C.ar      1 <0>        -0.1101
     23 C20         8.9327   -9.1871    7.2743 C.ar      1 <0>         0.1419
     24 C21         8.4975   -8.7813    8.5496 C.ar      1 <0>         0.1788
     25 C22         8.2420   -7.4232    8.7922 C.ar      1 <0>        -0.0612
     26 C23         8.4206   -6.5062    7.7991 C.ar      1 <0>        -0.0481
     27 N4          8.1549   -5.0746    8.0658 N.pl3     1 <0>         0.0509
     28 O1          7.9037   -4.7055    9.1893 O.2       1 <0>        -0.1869
     29 O2          8.1891   -4.2745    7.1601 O.3       1 <0>        -0.1713
     30 N5          8.3256   -9.6849    9.5356 N.2       1 <0>        -0.6070
     31 C24         8.5571  -10.9550    9.3336 C.2       1 <0>         0.4311
     32 O3          8.3766  -11.8439   10.3406 O.3       1 <0>        -0.6168
     33 C25         9.0134  -11.4223    8.0140 C.2       1 <0>         0.4783
     34 O4          9.2307  -12.6044    7.8198 O.2       1 <0>        -0.5023
     35 N6          9.1885  -10.5224    7.0219 N.am      1 <0>        -0.4867
     36 C26         9.6414  -10.9549    5.6975 C.3       1 <0>         0.0242
     37 C27        11.1471  -10.9205    5.6455 C.2       1 <0>         0.4880
     38 O5         11.7830  -10.5674    6.6241 O.co2     1 <0>        -0.6734
     39 O6         11.7295  -11.2458    4.6250 O.co2     1 <0>        -0.6978
     40 H1         -0.3162    3.0710    0.8832 H         1 <0>         0.1272
     41 H2          1.9183    4.0957    0.7402 H         1 <0>         0.1274
     42 H3          3.9162    2.6700    0.5431 H         1 <0>         0.1240
     43 H4          1.4447   -0.8049    0.6246 H         1 <0>         0.1251
     44 H5         -0.5533    0.6209    0.8203 H         1 <0>         0.1281
     45 H6          3.7654   -0.9471   -0.0736 H         1 <0>         0.0949
     46 H7          4.7969    0.5032   -0.1081 H         1 <0>         0.0930
     47 H8          4.8109    0.5522    2.3711 H         1 <0>         0.1302
     48 H9          3.7795   -0.8981    2.4056 H         1 <0>         0.1312
     49 H10         4.6395   -3.0054    1.7674 H         1 <0>         0.1368
     50 H11         4.9304   -2.3338    0.1449 H         1 <0>         0.1297
     51 H12         6.3315   -4.3452    0.5564 H         1 <0>         0.1200
     52 H13         7.3345   -2.8905    0.3381 H         1 <0>         0.0545
     53 H14         7.9847   -2.4974    3.9277 H         1 <0>         0.1396
     54 H15         8.3061   -1.8046    2.3194 H         1 <0>         0.0533
     55 H16         6.5812   -0.4888    3.5112 H         1 <0>         0.1318
     56 H17         5.5827   -1.9513    3.6907 H         1 <0>         0.1378
     57 H18         8.1128   -5.3799    1.6633 H         1 <0>         0.0859
     58 H19         9.1925   -3.9661    1.7238 H         1 <0>         0.0475
     59 H20        10.2666   -3.2834    4.1629 H         1 <0>         0.1282
     60 H21        10.4776   -4.5989    6.4194 H         1 <0>         0.1492
     61 H22         7.6653   -6.6797    3.9736 H         1 <0>         0.1558
     62 H23         9.4378   -8.5462    5.2905 H         1 <0>         0.1448
     63 H24         7.9076   -7.1032    9.7680 H         1 <0>         0.1589
     64 H25         9.2945  -11.9708    5.5087 H         1 <0>         0.0935
     65 H26         9.2363  -10.2857    4.9385 H         1 <0>         0.0801
     66 H27         6.4250   -0.7605    1.1430 H         1 <0>         0.4173
@<TRIPOS>BOND
     1    1    6 ar
     2    1    2 ar
     3    1   40 1
     4    2    3 ar
     5    2   41 1
     6    3    4 ar
     7    3   42 1
     8    4    5 ar
     9    4    7 1
    10    5    6 ar
    11    5   43 1
    12    6   44 1
    13    7    8 1
    14    7   45 1
    15    7   46 1
    16    8    9 1
    17    8   47 1
    18    8   48 1
    19    9   14 1
    20    9   10 1
    21    9   66 1
    22   10   11 1
    23   10   49 1
    24   10   50 1
    25   11   12 1
    26   11   51 1
    27   11   52 1
    28   12   13 1
    29   12   15 1
    30   13   14 1
    31   13   53 1
    32   13   54 1
    33   14   55 1
    34   14   56 1
    35   15   16 1
    36   15   57 1
    37   15   58 1
    38   16   20 2
    39   16   17 1
    40   17   18 2
    41   17   59 1
    42   18   19 1
    43   18   60 1
    44   19   20 1
    45   19   21 1
    46   20   61 1
    47   21   26 ar
    48   21   22 ar
    49   22   23 ar
    50   22   62 1
    51   23   35 1
    52   23   24 ar
    53   24   25 ar
    54   24   30 1
    55   25   26 ar
    56   25   63 1
    57   26   27 1
    58   27   28 2
    59   27   29 1
    60   30   31 2
    61   31   32 1
    62   31   33 1
    63   33   34 2
    64   33   35 am
    65   35   36 1
    66   36   37 1
    67   36   64 1
    68   36   65 1
    69   37   38 2
    70   37   39 1
@<TRIPOS>MOLECULE
CHEMBL67828__2
   67    71     0     0     0
SMALL
USER_CHARGES

@<TRIPOS>ATOM
      1 C1          0.0435    2.1135    0.8479 C.ar      1 <0>        -0.1183
      2 C2          1.2798    2.7179    0.7166 C.ar      1 <0>        -0.1166
      3 C3          2.4183    1.9434    0.5945 C.ar      1 <0>        -0.1140
      4 C4          2.3205    0.5646    0.6041 C.ar      1 <0>        -0.0924
      5 C5          1.0843   -0.0398    0.7362 C.ar      1 <0>        -0.1167
      6 C6         -0.0543    0.7346    0.8570 C.ar      1 <0>        -0.1170
      7 C7          3.5616   -0.2797    0.4699 C.3       1 <0>        -0.0742
      8 C8          4.1359   -0.5665    1.8588 C.3       1 <0>         0.0594
      9 N1          5.3457   -1.3895    1.7280 N.3       1 <0>        -0.5384
     10 C9          5.0205   -2.7249    1.2074 C.3       1 <0>         0.0203
     11 C10         6.3108   -3.5281    1.0301 C.3       1 <0>        -0.0010
     12 N2          6.9985   -3.6419    2.3231 N.4       1 <0>        -0.3873
     13 C11         7.3386   -2.3015    2.8183 C.3       1 <0>        -0.0003
     14 C12         6.0568   -1.4881    3.0105 C.3       1 <0>         0.0253
     15 C13         8.2279   -4.4284    2.1559 C.3       1 <0>         0.0858
     16 C14         8.8695   -4.6496    3.5015 C.2       1 <0>        -0.2402
     17 C15         9.8162   -3.8098    4.1219 C.2       1 <0>        -0.1708
     18 C16        10.1330   -4.3651    5.3094 C.2       1 <0>         0.0165
     19 N3          9.4157   -5.5190    5.4457 N.pl3     1 <0>        -0.3951
     20 C17         8.6387   -5.6844    4.3350 C.2       1 <0>         0.0906
     21 C18         9.4650   -6.3874    6.5458 C.ar      1 <0>         0.1832
     22 C19         9.1624   -5.9161    7.8133 C.ar      1 <0>        -0.1150
     23 C20         9.2105   -6.7758    8.9037 C.ar      1 <0>         0.2285
     24 C21         9.5650   -8.1139    8.7171 C.ar      1 <0>         0.1249
     25 C22         9.8676   -8.5779    7.4415 C.ar      1 <0>        -0.0410
     26 C23         9.8119   -7.7212    6.3622 C.ar      1 <0>        -0.0604
     27 N4         10.1285   -8.2215    5.0055 N.pl3     1 <0>         0.0423
     28 O1         10.3132   -9.4025    4.8246 O.2       1 <0>        -0.1525
     29 O2         10.2023   -7.4491    4.0784 O.3       1 <0>        -0.1539
     30 N5          9.6188   -8.9893    9.7989 N.am      1 <0>        -0.6322
     31 H1          9.8663   -9.9168    9.6595 H         1 <0>         0.4273
     32 C24         9.3278   -8.5495   11.0399 C.2       1 <0>         0.5175
     33 O3          9.3741   -9.3092   11.9866 O.2       1 <0>        -0.4513
     34 C25         8.9489   -7.1209   11.2385 C.2       1 <0>         0.5087
     35 O4          8.6835   -6.7054   12.3486 O.2       1 <0>        -0.4338
     36 N6          8.9051   -6.2948   10.1738 N.am      1 <0>        -0.4906
     37 C26         8.5355   -4.8887   10.3539 C.3       1 <0>         0.0157
     38 C27         7.0425   -4.7398   10.2133 C.2       1 <0>         0.4868
     39 O5          6.3512   -5.7176    9.9839 O.co2     1 <0>        -0.6765
     40 O6          6.5258   -3.6415   10.3289 O.co2     1 <0>        -0.6757
     41 H2         -0.8455    2.7186    0.9478 H         1 <0>         0.1236
     42 H3          1.3561    3.7952    0.7091 H         1 <0>         0.1241
     43 H4          3.3841    2.4156    0.4912 H         1 <0>         0.1225
     44 H5          1.0079   -1.1171    0.7434 H         1 <0>         0.1188
     45 H6         -1.0201    0.2625    0.9598 H         1 <0>         0.1234
     46 H7          3.3100   -1.2202   -0.0204 H         1 <0>         0.0715
     47 H8          4.3016    0.2542   -0.1262 H         1 <0>         0.0843
     48 H9          4.3875    0.3740    2.3491 H         1 <0>         0.0891
     49 H10         3.3959   -1.1004    2.4548 H         1 <0>         0.0482
     50 H11         4.3653   -3.2396    1.9102 H         1 <0>         0.0597
     51 H12         4.5175   -2.6276    0.2453 H         1 <0>         0.1215
     52 H13         6.0707   -4.5239    0.6575 H         1 <0>         0.1328
     53 H14         6.9599   -3.0201    0.3169 H         1 <0>         0.1360
     54 H15         7.8603   -2.3880    3.7714 H         1 <0>         0.1405
     55 H16         7.9824   -1.7998    2.0959 H         1 <0>         0.1339
     56 H17         6.3099   -0.4885    3.3638 H         1 <0>         0.1211
     57 H18         5.4187   -1.9824    3.7430 H         1 <0>         0.0610
     58 H19         7.9850   -5.3912    1.7065 H         1 <0>         0.1307
     59 H20         8.9190   -3.8891    1.5081 H         1 <0>         0.1338
     60 H21        10.2151   -2.8903    3.7198 H         1 <0>         0.1507
     61 H22        10.8331   -3.9660    6.0284 H         1 <0>         0.1741
     62 H23         7.9586   -6.5036    4.1541 H         1 <0>         0.1631
     63 H24         8.8894   -4.8806    7.9535 H         1 <0>         0.1707
     64 H25        10.1422   -9.6121    7.2951 H         1 <0>         0.1758
     65 H26         8.8420   -4.5566   11.3458 H         1 <0>         0.1089
     66 H27         9.0339   -4.2822    9.5976 H         1 <0>         0.0940
     67 H28         6.3931   -4.1018    2.9864 H         1 <0>         0.4189
@<TRIPOS>BOND
     1    1    6 ar
     2    1    2 ar
     3    1   41 1
     4    2    3 ar
     5    2   42 1
     6    3    4 ar
     7    3   43 1
     8    4    5 ar
     9    4    7 1
    10    5    6 ar
    11    5   44 1
    12    6   45 1
    13    7    8 1
    14    7   46 1
    15    7   47 1
    16    8    9 1
    17    8   48 1
    18    8   49 1
    19    9   14 1
    20    9   10 1
    21   10   11 1
    22   10   50 1
    23   10   51 1
    24   11   12 1
    25   11   52 1
    26   11   53 1
    27   12   13 1
    28   12   15 1
    29   12   67 1
    30   13   14 1
    31   13   54 1
    32   13   55 1
    33   14   56 1
    34   14   57 1
    35   15   16 1
    36   15   58 1
    37   15   59 1
    38   16   20 2
    39   16   17 1
    40   17   18 2
    41   17   60 1
    42   18   19 1
    43   18   61 1
    44   19   20 1
    45   19   21 1
    46   20   62 1
    47   21   26 ar
    48   21   22 ar
    49   22   23 ar
    50   22   63 1
    51   23   36 1
    52   23   24 ar
    53   24   25 ar
    54   24   30 1
    55   25   26 ar
    56   25   64 1
    57   26   27 1
    58   27   28 2
    59   27   29 1
    60   30   31 1
    61   30   32 am
    62   32   33 2
    63   32   34 1
    64   34   35 2
    65   34   36 am
    66   36   37 1
    67   37   38 1
    68   37   65 1
    69   37   66 1
    70   38   39 2
    71   38   40 1
@<TRIPOS>MOLECULE
CHEMBL122082
   35    37     0     0     0
SMALL
USER_CHARGES

@<TRIPOS>ATOM
      1 C1         -0.5374    1.8193   -1.1384 C.3       1 <0>        -0.1505
      2 C2         -0.3562    0.3155   -0.9225 C.3       1 <0>         0.0489
      3 N1         -1.6648   -0.3050   -0.6764 N.3       1 <0>        -0.5337
      4 C3         -2.2300    0.1465    0.6051 C.3       1 <0>         0.0448
      5 C4         -3.7125   -0.2258    0.6393 C.3       1 <0>        -0.0809
      6 C5         -3.8869   -1.6785    0.2772 C.ar      1 <0>        -0.0652
      7 C6         -2.8911   -2.3925   -0.3501 C.ar      1 <0>        -0.0028
      8 C7         -3.0945   -3.7289   -0.6723 C.ar      1 <0>        -0.0286
      9 C8         -4.2847   -4.3522   -0.3667 C.ar      1 <0>        -0.0590
     10 C9         -5.2953   -3.6415    0.2704 C.ar      1 <0>         0.1243
     11 C10        -5.0950   -2.2996    0.5928 C.ar      1 <0>         0.1685
     12 N2         -6.0932   -1.5677    1.2305 N.am      1 <0>        -0.6327
     13 C11        -7.2666   -2.1549    1.5421 C.2       1 <0>         0.5115
     14 C12        -7.4804   -3.5900    1.1969 C.2       1 <0>         0.5117
     15 N3         -6.4962   -4.2744    0.5791 N.am      1 <0>        -0.6310
     16 O1         -8.5301   -4.1369    1.4697 O.2       1 <0>        -0.4511
     17 O2         -8.1408   -1.5210    2.0981 O.2       1 <0>        -0.4477
     18 N4         -2.0219   -4.4903   -1.3512 N.pl3     1 <0>         0.0307
     19 O3         -2.3030   -5.3079   -2.1963 O.2       1 <0>        -0.1423
     20 O4         -0.8648   -4.2945   -1.0606 O.3       1 <0>        -0.1442
     21 C13        -1.5654   -1.7676   -0.6998 C.3       1 <0>         0.0845
     22 H1          0.4335    2.2798   -1.3210 H         1 <0>         0.0641
     23 H2         -1.1866    1.9874   -1.9977 H         1 <0>         0.0649
     24 H3         -0.9883    2.2622   -0.2503 H         1 <0>         0.0559
     25 H4          0.0946   -0.1273   -1.8106 H         1 <0>         0.0812
     26 H5          0.2930    0.1475   -0.0632 H         1 <0>         0.0419
     27 H6         -1.7100   -0.3442    1.4279 H         1 <0>         0.0486
     28 H7         -2.1218    1.2276    0.6925 H         1 <0>         0.0969
     29 H8         -4.1060   -0.0528    1.6409 H         1 <0>         0.0882
     30 H9         -4.2574    0.3928   -0.0738 H         1 <0>         0.1015
     31 H10        -4.4323   -5.3912   -0.6219 H         1 <0>         0.1662
     32 H11        -1.2666   -2.0920   -1.6966 H         1 <0>         0.0983
     33 H12        -0.8148   -2.0888    0.0224 H         1 <0>         0.0800
     34 H13        -5.9444   -0.6349    1.4510 H         1 <0>         0.4278
     35 H14        -6.6251   -5.2080    0.3496 H         1 <0>         0.4292
@<TRIPOS>BOND
     1    1    2 1
     2    1   22 1
     3    1   23 1
     4    1   24 1
     5    2    3 1
     6    2   25 1
     7    2   26 1
     8    3   21 1
     9    3    4 1
    10    4    5 1
    11    4   27 1
    12    4   28 1
    13    5    6 1
    14    5   29 1
    15    5   30 1
    16    6   11 ar
    17    6    7 ar
    18    7    8 ar
    19    7   21 1
    20    8    9 ar
    21    8   18 1
    22    9   10 ar
    23    9   31 1
    24   10   15 1
    25   10   11 ar
    26   11   12 1
    27   12   13 am
    28   12   34 1
    29   13   14 1
    30   13   17 2
    31   14   15 am
    32   14   16 2
    33   15   35 1
    34   18   19 2
    35   18   20 1
    36   21   32 1
    37   21   33 1
@<TRIPOS>MOLECULE
CHEMBL121771
   35    37     0     0     0
SMALL
USER_CHARGES

@<TRIPOS>ATOM
      1 C1         -0.0187    1.5258    0.0104 C.3       1 <0>        -0.1513
      2 C2          0.0021   -0.0041    0.0020 C.3       1 <0>         0.0480
      3 N1         -1.3761   -0.5125    0.0124 N.3       1 <0>        -0.5304
      4 C3         -2.0442   -0.1992    1.2857 C.3       1 <0>         0.0416
      5 C4         -3.5477   -0.4143    1.1107 C.3       1 <0>        -0.0912
      6 C5         -3.8071   -1.7717    0.5080 C.ar      1 <0>         0.0169
      7 C6         -5.0890   -2.3003    0.5986 C.ar      1 <0>        -0.0428
      8 C7         -5.3791   -3.5350    0.0606 C.ar      1 <0>        -0.0503
      9 C8         -4.3825   -4.2623   -0.5808 C.ar      1 <0>         0.1166
     10 C9         -3.0954   -3.7345   -0.6712 C.ar      1 <0>         0.1796
     11 C10        -2.8118   -2.4839   -0.1210 C.ar      1 <0>        -0.0836
     12 C11        -1.4048   -1.9578   -0.2328 C.3       1 <0>         0.0906
     13 N2         -2.0809   -4.4446   -1.3079 N.am      1 <0>        -0.6342
     14 C12        -2.3383   -5.6545   -1.8449 C.2       1 <0>         0.5118
     15 C13        -3.7156   -6.2188   -1.7484 C.2       1 <0>         0.5117
     16 N3         -4.6783   -5.5087   -1.1255 N.am      1 <0>        -0.6305
     17 O1         -3.9677   -7.3068   -2.2260 O.2       1 <0>        -0.4511
     18 O2         -1.4575   -6.2784   -2.4020 O.2       1 <0>        -0.4465
     19 N4         -6.1532   -1.5295    1.2802 N.pl3     1 <0>         0.0394
     20 O3         -7.2705   -1.9839    1.3624 O.2       1 <0>        -0.1573
     21 O4         -5.9050   -0.4456    1.7548 O.3       1 <0>        -0.1481
     22 H1          1.0039    1.9031    0.0027 H         1 <0>         0.0635
     23 H2         -0.5459    1.8868   -0.8726 H         1 <0>         0.0659
     24 H3         -0.5289    1.8773    0.9072 H         1 <0>         0.0582
     25 H4          0.5123   -0.3556   -0.8948 H         1 <0>         0.0789
     26 H5          0.5293   -0.3651    0.8851 H         1 <0>         0.0400
     27 H6         -1.6686   -0.8585    2.0683 H         1 <0>         0.0454
     28 H7         -1.8517    0.8395    1.5544 H         1 <0>         0.0979
     29 H8         -4.0378   -0.3501    2.0822 H         1 <0>         0.1181
     30 H9         -3.9493    0.3564    0.4529 H         1 <0>         0.1073
     31 H10        -6.3784   -3.9374    0.1371 H         1 <0>         0.1710
     32 H11        -1.0235   -2.1605   -1.2336 H         1 <0>         0.0949
     33 H12        -0.7735   -2.4597    0.5005 H         1 <0>         0.0637
     34 H13        -5.5771   -5.8670   -1.0566 H         1 <0>         0.4297
     35 H14        -1.1886   -4.0686   -1.3655 H         1 <0>         0.4268
@<TRIPOS>BOND
     1    1    2 1
     2    1   22 1
     3    1   23 1
     4    1   24 1
     5    2    3 1
     6    2   25 1
     7    2   26 1
     8    3   12 1
     9    3    4 1
    10    4    5 1
    11    4   27 1
    12    4   28 1
    13    5    6 1
    14    5   29 1
    15    5   30 1
    16    6   11 ar
    17    6    7 ar
    18    7    8 ar
    19    7   19 1
    20    8    9 ar
    21    8   31 1
    22    9   16 1
    23    9   10 ar
    24   10   11 ar
    25   10   13 1
    26   11   12 1
    27   12   32 1
    28   12   33 1
    29   13   14 am
    30   13   35 1
    31   14   15 1
    32   14   18 2
    33   15   16 am
    34   15   17 2
    35   16   34 1
    36   19   20 2
    37   19   21 1
@<TRIPOS>MOLECULE
CHEMBL273675
   56    59     0     0     0
SMALL
USER_CHARGES

@<TRIPOS>ATOM
      1 C1          1.2719   -0.7097    0.5527 C.ar      1 <0>        -0.0482
      2 C2          2.4397    0.0277    0.5637 C.ar      1 <0>        -0.1246
      3 C3          2.5158    1.2155   -0.1516 C.ar      1 <0>         0.2087
      4 C4          1.4167    1.6582   -0.8758 C.ar      1 <0>        -0.1530
      5 C5          0.2518    0.9162   -0.8827 C.ar      1 <0>        -0.0475
      6 C6          0.1792   -0.2662   -0.1694 C.ar      1 <0>        -0.2092
      7 C7         -1.0933   -1.0735   -0.1795 C.3       1 <0>         0.5109
      8 F1         -1.9161   -0.6602    0.8738 F         1 <0>        -0.1782
      9 F2         -1.7588   -0.8798   -1.3947 F         1 <0>        -0.1791
     10 F3         -0.7863   -2.4298   -0.0269 F         1 <0>        -0.1782
     11 N1          3.6974    1.9652   -0.1422 N.am      1 <0>        -0.6888
     12 C8          4.8901    1.3424   -0.0639 C.2       1 <0>         0.7033
     13 O1          4.9453    0.1283   -0.0988 O.2       1 <0>        -0.5730
     14 N2          6.0215    2.0653    0.0532 N.am      1 <0>        -0.7306
     15 C9          7.3178    1.3883    0.1384 C.3       1 <0>         0.2162
     16 C10         8.4137    2.4153    0.2624 C.2       1 <0>        -0.1880
     17 C11         9.1094    3.0248   -0.8009 C.2       1 <0>        -0.1711
     18 C12        10.0036    3.8789   -0.2628 C.2       1 <0>         0.0014
     19 N3          9.8857    3.8195    1.0963 N.pl3     1 <0>        -0.4071
     20 C13         8.9043    2.9237    1.4112 C.2       1 <0>         0.0187
     21 C14        10.6433    4.5593    2.0160 C.ar      1 <0>         0.1832
     22 C15        10.6457    5.9437    1.9552 C.ar      1 <0>        -0.1151
     23 C16        11.3955    6.6775    2.8661 C.ar      1 <0>         0.2046
     24 C17        12.1453    6.0151    3.8407 C.ar      1 <0>         0.1118
     25 C18        12.1371    4.6254    3.8938 C.ar      1 <0>        -0.0570
     26 C19        11.3860    3.9028    2.9908 C.ar      1 <0>        -0.1917
     27 C20        11.3752    2.3973    3.0568 C.3       1 <0>         0.5180
     28 F4         12.3045    1.9656    4.0094 F         1 <0>        -0.1754
     29 F5         10.0979    1.9555    3.4178 F         1 <0>        -0.1716
     30 F6         11.7133    1.8732    1.8046 F         1 <0>        -0.1670
     31 N4         12.9030    6.7348    4.7614 N.am      1 <0>        -0.6314
     32 H1         13.4210    6.2660    5.4342 H         1 <0>         0.4219
     33 C21        12.9178    8.0825    4.7185 C.2       1 <0>         0.5168
     34 O2         13.5774    8.7144    5.5192 O.2       1 <0>        -0.4701
     35 C22        12.1167    8.7892    3.6781 C.2       1 <0>         0.5080
     36 O3         12.1170   10.0027    3.6231 O.2       1 <0>        -0.4544
     37 N5         11.3928    8.0679    2.7985 N.am      1 <0>        -0.4916
     38 C23        10.6018    8.7485    1.7703 C.3       1 <0>         0.0198
     39 C24         9.2181    9.0227    2.3007 C.2       1 <0>         0.4874
     40 O4          8.9203    8.6811    3.4326 O.co2     1 <0>        -0.6764
     41 O5          8.3963    9.5860    1.5978 O.co2     1 <0>        -0.6815
     42 H2          1.2135   -1.6359    1.1051 H         1 <0>         0.1379
     43 H3          3.2926   -0.3190    1.1282 H         1 <0>         0.1490
     44 H4          1.4726    2.5818   -1.4328 H         1 <0>         0.1385
     45 H5         -0.6035    1.2601   -1.4455 H         1 <0>         0.1386
     46 H6          3.6581    2.9332   -0.1920 H         1 <0>         0.4126
     47 H7          5.9774    3.0339    0.0811 H         1 <0>         0.4027
     48 H8          7.3305    0.7361    1.0117 H         1 <0>         0.0728
     49 H9          7.4771    0.7939   -0.7613 H         1 <0>         0.0759
     50 H10         8.9550    2.8411   -1.8540 H         1 <0>         0.1425
     51 H11        10.6939    4.5021   -0.8119 H         1 <0>         0.1674
     52 H12         8.5791    2.6650    2.4080 H         1 <0>         0.1759
     53 H13        10.0652    6.4521    1.1996 H         1 <0>         0.1600
     54 H14        12.7168    4.1113    4.6462 H         1 <0>         0.1594
     55 H15        11.0827    9.6903    1.5060 H         1 <0>         0.1029
     56 H16        10.5330    8.1149    0.8861 H         1 <0>         0.0930
@<TRIPOS>BOND
     1    1    6 ar
     2    1    2 ar
     3    1   42 1
     4    2    3 ar
     5    2   43 1
     6    3    4 ar
     7    3   11 1
     8    4    5 ar
     9    4   44 1
    10    5    6 ar
    11    5   45 1
    12    6    7 1
    13    7    8 1
    14    7    9 1
    15    7   10 1
    16   11   12 am
    17   11   46 1
    18   12   13 2
    19   12   14 am
    20   14   15 1
    21   14   47 1
    22   15   16 1
    23   15   48 1
    24   15   49 1
    25   16   20 2
    26   16   17 1
    27   17   18 2
    28   17   50 1
    29   18   19 1
    30   18   51 1
    31   19   20 1
    32   19   21 1
    33   20   52 1
    34   21   26 ar
    35   21   22 ar
    36   22   23 ar
    37   22   53 1
    38   23   37 1
    39   23   24 ar
    40   24   25 ar
    41   24   31 1
    42   25   26 ar
    43   25   54 1
    44   26   27 1
    45   27   28 1
    46   27   29 1
    47   27   30 1
    48   31   32 1
    49   31   33 am
    50   33   34 2
    51   33   35 1
    52   35   36 2
    53   35   37 am
    54   37   38 1
    55   38   39 1
    56   38   55 1
    57   38   56 1
    58   39   40 2
    59   39   41 1
@<TRIPOS>MOLECULE
CHEMBL125536
   39    41     0     0     0
SMALL
USER_CHARGES

@<TRIPOS>ATOM
      1 C1         -0.6799   -2.6254   -1.0860 C.3       1 <0>        -0.1446
      2 C2         -1.3963   -2.0516    0.1381 C.3       1 <0>        -0.1174
      3 C3         -1.3374   -0.5234    0.0937 C.3       1 <0>         0.0785
      4 C4         -1.9805    0.0488    1.3585 C.3       1 <0>        -0.1923
      5 N1         -2.0647   -0.0395   -1.0873 N.3       1 <0>        -0.5175
      6 C5         -1.8634    1.4062   -1.2749 C.3       1 <0>         0.0491
      7 C6         -2.3222    1.7814   -2.6842 C.3       1 <0>        -0.0828
      8 C7         -3.7044    1.2356   -2.9383 C.ar      1 <0>        -0.0230
      9 C8         -4.4363    1.7578   -3.9990 C.ar      1 <0>        -0.0827
     10 C9         -5.7030    1.2897   -4.2759 C.ar      1 <0>        -0.0875
     11 C10        -6.2572    0.2859   -3.4895 C.ar      1 <0>         0.1213
     12 C11        -5.5256   -0.2371   -2.4243 C.ar      1 <0>         0.1381
     13 C12        -4.2450    0.2451   -2.1510 C.ar      1 <0>        -0.0710
     14 C13        -3.4955   -0.3428   -0.9841 C.3       1 <0>         0.0823
     15 N2         -6.0601   -1.2430   -1.6230 N.am      1 <0>        -0.6339
     16 C14        -7.2961   -1.7205   -1.8736 C.2       1 <0>         0.5098
     17 C15        -8.0788   -1.1602   -3.0130 C.2       1 <0>         0.5098
     18 N3         -7.5358   -0.1867   -3.7722 N.am      1 <0>        -0.6311
     19 O1         -9.1936   -1.5771   -3.2552 O.2       1 <0>        -0.4620
     20 O2         -7.7672   -2.5983   -1.1788 O.2       1 <0>        -0.4605
     21 Br1        -3.6866    3.1224   -5.0722 Br        1 <0>        -0.0270
     22 H1         -0.6385   -3.7117   -1.0067 H         1 <0>         0.0480
     23 H2         -1.2238   -2.3475   -1.9888 H         1 <0>         0.0637
     24 H3          0.3331   -2.2258   -1.1346 H         1 <0>         0.0525
     25 H4         -2.4371   -2.3753    0.1349 H         1 <0>         0.0597
     26 H5         -0.9078   -2.4078    1.0451 H         1 <0>         0.0678
     27 H6         -0.2976   -0.2014    0.0372 H         1 <0>         0.0908
     28 H7         -1.4408   -0.3103    2.2348 H         1 <0>         0.0667
     29 H8         -1.9385    1.1375    1.3269 H         1 <0>         0.0587
     30 H9         -3.0203   -0.2733    1.4150 H         1 <0>         0.0591
     31 H10        -2.4512    1.9562   -0.5399 H         1 <0>         0.0454
     32 H11        -0.8069    1.6472   -1.1575 H         1 <0>         0.0879
     33 H12        -2.3380    2.8668   -2.7826 H         1 <0>         0.0925
     34 H13        -1.6285    1.3635   -3.4137 H         1 <0>         0.0977
     35 H14        -6.2638    1.7020   -5.1016 H         1 <0>         0.1507
     36 H15        -3.6343   -1.4239   -0.9751 H         1 <0>         0.0914
     37 H16        -3.8862    0.0773   -0.0573 H         1 <0>         0.0645
     38 H17        -5.5429   -1.6005   -0.8844 H         1 <0>         0.4221
     39 H18        -8.0365    0.1845   -4.5154 H         1 <0>         0.4254
@<TRIPOS>BOND
     1    1    2 1
     2    1   22 1
     3    1   23 1
     4    1   24 1
     5    2    3 1
     6    2   25 1
     7    2   26 1
     8    3    4 1
     9    3    5 1
    10    3   27 1
    11    4   28 1
    12    4   29 1
    13    4   30 1
    14    5   14 1
    15    5    6 1
    16    6    7 1
    17    6   31 1
    18    6   32 1
    19    7    8 1
    20    7   33 1
    21    7   34 1
    22    8   13 ar
    23    8    9 ar
    24    9   10 ar
    25    9   21 1
    26   10   11 ar
    27   10   35 1
    28   11   18 1
    29   11   12 ar
    30   12   13 ar
    31   12   15 1
    32   13   14 1
    33   14   36 1
    34   14   37 1
    35   15   16 am
    36   15   38 1
    37   16   17 1
    38   16   20 2
    39   17   18 am
    40   17   19 2
    41   18   39 1
@<TRIPOS>MOLECULE
CHEMBL125536__1
   39    41     0     0     0
SMALL
USER_CHARGES

@<TRIPOS>ATOM
      1 C1         -0.0187    1.5258    0.0104 C.3       1 <0>        -0.1464
      2 C2          0.0021   -0.0041    0.0020 C.3       1 <0>        -0.1171
      3 C3         -1.4333   -0.5336    0.0129 C.3       1 <0>         0.0776
      4 C4         -1.4157   -2.0577   -0.1212 C.3       1 <0>        -0.1916
      5 N1         -2.0833   -0.1607    1.2764 N.3       1 <0>        -0.5174
      6 C5         -1.3910   -0.7673    2.4247 C.3       1 <0>         0.0430
      7 C6         -1.8648   -0.0706    3.7004 C.3       1 <0>        -0.0828
      8 C7         -3.3715   -0.0359    3.7392 C.ar      1 <0>        -0.0225
      9 C8         -3.9953    0.2232    4.9545 C.ar      1 <0>        -0.0829
     10 C9         -5.3703    0.2701    5.0421 C.ar      1 <0>        -0.0872
     11 C10        -6.1439    0.0571    3.9066 C.ar      1 <0>         0.1211
     12 C11        -5.5199   -0.2051    2.6878 C.ar      1 <0>         0.1385
     13 C12        -4.1274   -0.2525    2.6101 C.ar      1 <0>        -0.0711
     14 C13        -3.4972   -0.5487    1.2744 C.3       1 <0>         0.0866
     15 N2         -6.2741   -0.4215    1.5371 N.am      1 <0>        -0.6339
     16 C14        -7.6207   -0.3788    1.5947 C.2       1 <0>         0.5098
     17 C15        -8.2878   -0.0990    2.8990 C.2       1 <0>         0.5097
     18 N3         -7.5321    0.1069    3.9969 N.am      1 <0>        -0.6311
     19 O1         -9.4995   -0.0560    2.9714 O.2       1 <0>        -0.4620
     20 O2         -8.2837   -0.5658    0.5943 O.2       1 <0>        -0.4606
     21 Br1        -2.9478    0.5147    6.5017 Br        1 <0>        -0.0270
     22 H1          1.0039    1.9031    0.0027 H         1 <0>         0.0488
     23 H2         -0.5459    1.8868   -0.8726 H         1 <0>         0.0504
     24 H3         -0.5289    1.8773    0.9072 H         1 <0>         0.0661
     25 H4          0.5123   -0.3556   -0.8948 H         1 <0>         0.0671
     26 H5          0.5293   -0.3651    0.8851 H         1 <0>         0.0658
     27 H6         -1.9862   -0.1019   -0.8214 H         1 <0>         0.0871
     28 H7         -2.4383   -2.4349   -0.1135 H         1 <0>         0.0567
     29 H8         -0.9334   -2.3344   -1.0587 H         1 <0>         0.0662
     30 H9         -0.8628   -2.4894    0.7131 H         1 <0>         0.0607
     31 H10        -1.6302   -1.8295    2.4771 H         1 <0>         0.0457
     32 H11        -0.3145   -0.6365    2.3141 H         1 <0>         0.0930
     33 H12        -1.4928   -0.6140    4.5689 H         1 <0>         0.0921
     34 H13        -1.4788    0.9486    3.7207 H         1 <0>         0.0973
     35 H14        -5.8456    0.4715    5.9907 H         1 <0>         0.1507
     36 H15        -4.0219    0.0078    0.4977 H         1 <0>         0.0896
     37 H16        -3.5772   -1.6159    1.0678 H         1 <0>         0.0623
     38 H17        -5.8305   -0.6027    0.6938 H         1 <0>         0.4225
     39 H18        -7.9562    0.2895    4.8500 H         1 <0>         0.4255
@<TRIPOS>BOND
     1    1    2 1
     2    1   22 1
     3    1   23 1
     4    1   24 1
     5    2    3 1
     6    2   25 1
     7    2   26 1
     8    3    4 1
     9    3    5 1
    10    3   27 1
    11    4   28 1
    12    4   29 1
    13    4   30 1
    14    5   14 1
    15    5    6 1
    16    6    7 1
    17    6   31 1
    18    6   32 1
    19    7    8 1
    20    7   33 1
    21    7   34 1
    22    8   13 ar
    23    8    9 ar
    24    9   10 ar
    25    9   21 1
    26   10   11 ar
    27   10   35 1
    28   11   18 1
    29   11   12 ar
    30   12   13 ar
    31   12   15 1
    32   13   14 1
    33   14   36 1
    34   14   37 1
    35   15   16 am
    36   15   38 1
    37   16   17 1
    38   16   20 2
    39   17   18 am
    40   17   19 2
    41   18   39 1
@<TRIPOS>MOLECULE
CHEMBL125484
   42    44     0     0     0
SMALL
USER_CHARGES

@<TRIPOS>ATOM
      1 C1         -0.0187    1.5258    0.0104 C.3       1 <0>        -0.1505
      2 C2          0.0021   -0.0041    0.0020 C.3       1 <0>        -0.0964
      3 C3          0.7421   -0.5109    1.2415 C.3       1 <0>        -0.1481
      4 C4         -1.4333   -0.5336    0.0129 C.3       1 <0>        -0.1113
      5 C5         -2.1352   -0.1312   -1.2857 C.3       1 <0>         0.0508
      6 N1         -3.5134   -0.6397   -1.2753 N.3       1 <0>        -0.5280
      7 C6         -3.5335   -2.1101   -1.3321 C.3       1 <0>         0.0459
      8 C7         -4.9346   -2.5913   -0.9545 C.3       1 <0>        -0.0830
      9 C8         -5.9689   -1.8525   -1.7653 C.ar      1 <0>        -0.0224
     10 C9         -7.2531   -2.3807   -1.8369 C.ar      1 <0>        -0.0830
     11 C10        -8.2360   -1.7410   -2.5615 C.ar      1 <0>        -0.0866
     12 C11        -7.9443   -0.5562   -3.2280 C.ar      1 <0>         0.1212
     13 C12        -6.6567   -0.0265   -3.1590 C.ar      1 <0>         0.1392
     14 C13        -5.6682   -0.6829   -2.4246 C.ar      1 <0>        -0.0723
     15 C14        -4.2888   -0.0790   -2.3862 C.3       1 <0>         0.0906
     16 N2         -6.3412    1.1590   -3.8182 N.am      1 <0>        -0.6341
     17 C15        -7.2848    1.8062   -4.5320 C.2       1 <0>         0.5100
     18 C16        -8.6622    1.2388   -4.6061 C.2       1 <0>         0.5098
     19 N3         -8.9390    0.0892   -3.9574 N.am      1 <0>        -0.6311
     20 O1         -9.5261    1.8068   -5.2436 O.2       1 <0>        -0.4618
     21 O2         -7.0158    2.8410   -5.1083 O.2       1 <0>        -0.4603
     22 Br1        -7.6553   -3.9914   -0.9314 Br        1 <0>        -0.0265
     23 H1          1.0039    1.9031    0.0027 H         1 <0>         0.0539
     24 H2         -0.5459    1.8868   -0.8726 H         1 <0>         0.0546
     25 H3         -0.5289    1.8773    0.9072 H         1 <0>         0.0562
     26 H4          0.5123   -0.3556   -0.8948 H         1 <0>         0.0680
     27 H5          0.2319   -0.1594    2.1383 H         1 <0>         0.0556
     28 H6          0.7568   -1.6008    1.2356 H         1 <0>         0.0540
     29 H7          1.7647   -0.1336    1.2338 H         1 <0>         0.0550
     30 H8         -1.4190   -1.6203    0.0965 H         1 <0>         0.0643
     31 H9         -1.9701   -0.1109    0.8621 H         1 <0>         0.0737
     32 H10        -2.1495    0.9555   -1.3693 H         1 <0>         0.0805
     33 H11        -1.5984   -0.5539   -2.1349 H         1 <0>         0.0382
     34 H12        -3.2926   -2.4409   -2.3423 H         1 <0>         0.0439
     35 H13        -2.8056   -2.5137   -0.6282 H         1 <0>         0.0917
     36 H14        -5.0156   -3.6602   -1.1523 H         1 <0>         0.0928
     37 H15        -5.1069   -2.4071    0.1059 H         1 <0>         0.0979
     38 H16        -9.2304   -2.1595   -2.6116 H         1 <0>         0.1510
     39 H17        -4.3719    1.0003   -2.2582 H         1 <0>         0.0902
     40 H18        -3.7771   -0.2909   -3.3250 H         1 <0>         0.0583
     41 H19        -5.4424    1.5196   -3.7637 H         1 <0>         0.4225
     42 H20        -9.8316   -0.2882   -3.9994 H         1 <0>         0.4256
@<TRIPOS>BOND
     1    1    2 1
     2    1   23 1
     3    1   24 1
     4    1   25 1
     5    2    3 1
     6    2    4 1
     7    2   26 1
     8    3   27 1
     9    3   28 1
    10    3   29 1
    11    4    5 1
    12    4   30 1
    13    4   31 1
    14    5    6 1
    15    5   32 1
    16    5   33 1
    17    6   15 1
    18    6    7 1
    19    7    8 1
    20    7   34 1
    21    7   35 1
    22    8    9 1
    23    8   36 1
    24    8   37 1
    25    9   14 ar
    26    9   10 ar
    27   10   11 ar
    28   10   22 1
    29   11   12 ar
    30   11   38 1
    31   12   19 1
    32   12   13 ar
    33   13   14 ar
    34   13   16 1
    35   14   15 1
    36   15   39 1
    37   15   40 1
    38   16   17 am
    39   16   41 1
    40   17   18 1
    41   17   21 2
    42   18   19 am
    43   18   20 2
    44   19   42 1
@<TRIPOS>MOLECULE
CHEMBL65729
   29    30     0     0     0
SMALL
USER_CHARGES

@<TRIPOS>ATOM
      1 C1          0.2965    3.5279    1.6371 C.2       1 <0>        -0.2252
      2 C2          1.4200    3.1107    0.7966 C.ar      1 <0>         0.0213
      3 C3          2.5014    2.4113    1.3459 C.ar      1 <0>        -0.0376
      4 C4          3.5404    2.0300    0.5457 C.ar      1 <0>        -0.0044
      5 C5          3.5339    2.3302   -0.8095 C.ar      1 <0>        -0.0224
      6 C6          2.4803    3.0175   -1.3718 C.ar      1 <0>        -0.0638
      7 C7          1.4100    3.4166   -0.5762 C.ar      1 <0>         0.1515
      8 N1          0.3489    4.1053   -1.1266 N.am      1 <0>        -0.6130
      9 C8         -0.6926    4.4979   -0.3716 C.2       1 <0>         0.4956
     10 C9         -0.7336    4.2051    1.0612 C.2       1 <0>         0.2475
     11 N2         -1.8232    4.6186    1.8333 N.2       1 <0>        -1.0230
     12 S1         -3.0737    5.4425    1.1265 S.o2      1 <0>         2.5405
     13 O1         -2.4961    6.6590    0.6730 O.2       1 <0>        -0.9313
     14 O2         -3.6395    4.5212    0.2043 O.2       1 <0>        -0.9315
     15 C10        -4.2392    5.7696    2.4775 C.3       1 <0>        -0.0226
     16 F1         -3.6072    6.5347    3.4635 F         1 <0>        -0.1650
     17 F2         -5.3442    6.4694    1.9810 F         1 <0>        -0.1793
     18 F3         -4.6651    4.5569    3.0299 F         1 <0>        -0.1649
     19 O3         -1.6145    5.1050   -0.8879 O.2       1 <0>        -0.4976
     20 N3          4.6703    1.9081   -1.6590 N.pl3     1 <0>         0.0345
     21 O4          5.0721    2.6362   -2.5365 O.2       1 <0>        -0.1413
     22 O5          5.1966    0.8353   -1.4753 O.3       1 <0>        -0.1395
     23 N4          4.6830    1.2911    1.1285 N.pl3     1 <0>         0.0296
     24 O6          4.4911    0.4561    1.9815 O.2       1 <0>        -0.1327
     25 O7          5.8081    1.5225    0.7514 O.3       1 <0>        -0.1399
     26 H1          0.2834    3.2988    2.6924 H         1 <0>         0.1549
     27 H2          2.5141    2.1743    2.3995 H         1 <0>         0.1734
     28 H3          2.4850    3.2464   -2.4272 H         1 <0>         0.1665
     29 H4          0.3542    4.3103   -2.0747 H         1 <0>         0.4195
@<TRIPOS>BOND
     1    1   10 2
     2    1    2 1
     3    1   26 1
     4    2    7 ar
     5    2    3 ar
     6    3    4 ar
     7    3   27 1
     8    4    5 ar
     9    4   23 1
    10    5    6 ar
    11    5   20 1
    12    6    7 ar
    13    6   28 1
    14    7    8 1
    15    8    9 am
    16    8   29 1
    17    9   10 1
    18    9   19 2
    19   10   11 1
    20   11   12 1
    21   12   13 2
    22   12   14 2
    23   12   15 1
    24   15   16 1
    25   15   17 1
    26   15   18 1
    27   20   21 2
    28   20   22 1
    29   23   24 2
    30   23   25 1
@<TRIPOS>MOLECULE
CHEMBL388746
   37    39     0     0     0
SMALL
USER_CHARGES

@<TRIPOS>ATOM
      1 C1         -0.0167    1.3781    0.0096 C.ar      1 <0>        -0.1016
      2 C2          1.1709    2.0855    0.0021 C.ar      1 <0>        -0.1258
      3 C3          2.3773    1.4107   -0.0130 C.ar      1 <0>        -0.0862
      4 C4          2.3960    0.0285   -0.0201 C.ar      1 <0>        -0.1314
      5 C5          1.2084   -0.6789   -0.0117 C.ar      1 <0>        -0.0850
      6 C6          0.0021   -0.0041    0.0020 C.ar      1 <0>        -0.1234
      7 C7          3.7112   -0.7071   -0.0376 C.3       1 <0>         0.1714
      8 N1          4.1518   -0.9524    1.3379 N.pl3     1 <0>        -0.1344
      9 N2          4.8850   -0.1571    2.0384 N.2       1 <0>        -0.2820
     10 C8          5.0707   -0.7153    3.2198 C.2       1 <0>         0.2276
     11 N3          4.4144   -1.8855    3.1984 N.2       1 <0>        -0.2123
     12 N4          3.8626   -1.9934    2.0376 N.2       1 <0>        -0.0428
     13 C9          5.8511   -0.1596    4.3475 C.2       1 <0>         0.1362
     14 C10         6.0287   -0.7540    5.5574 C.2       1 <0>        -0.1644
     15 C11         6.8283    0.0910    6.3486 C.2       1 <0>         0.5451
     16 N5          7.1215    1.1802    5.6083 N.am      1 <0>        -0.5751
     17 O1          6.5061    1.0128    4.3436 O.3       1 <0>        -0.0440
     18 O2          7.1899   -0.1219    7.4950 O.2       1 <0>        -0.4838
     19 C12         5.4660   -2.0871    5.9783 C.3       1 <0>        -0.0302
     20 C13         6.5097   -3.1798    5.7388 C.3       1 <0>         0.0338
     21 C14         5.9060   -4.5266    6.0434 C.2       1 <0>         0.4674
     22 O3          5.0502   -4.9911    5.3098 O.co2     1 <0>        -0.6895
     23 O4          6.2735   -5.1517    7.0236 O.co2     1 <0>        -0.7019
     24 N6          7.6667   -2.9523    6.6149 N.3       1 <0>        -0.8264
     25 H1         -0.9591    1.9053    0.0259 H         1 <0>         0.1254
     26 H2          1.1563    3.1654    0.0076 H         1 <0>         0.1266
     27 H3          3.3051    1.9634   -0.0196 H         1 <0>         0.1288
     28 H4          1.2231   -1.7588   -0.0176 H         1 <0>         0.1324
     29 H5         -0.9258   -0.5567    0.0082 H         1 <0>         0.1284
     30 H6          3.5884   -1.6586   -0.5549 H         1 <0>         0.1300
     31 H7          4.4573   -0.1052   -0.5563 H         1 <0>         0.1255
     32 H8          5.2096   -2.0553    7.0372 H         1 <0>         0.0746
     33 H9          4.5716   -2.3047    5.3944 H         1 <0>         0.1003
     34 H10         6.8315   -3.1530    4.6977 H         1 <0>         0.0653
     35 H11         7.3943   -2.9725    7.5862 H         1 <0>         0.3399
     36 H12         8.3975   -3.6232    6.4303 H         1 <0>         0.3273
     37 H13         7.6585    1.9375    5.8895 H         1 <0>         0.4538
@<TRIPOS>BOND
     1    1    6 ar
     2    1    2 ar
     3    1   25 1
     4    2    3 ar
     5    2   26 1
     6    3    4 ar
     7    3   27 1
     8    4    5 ar
     9    4    7 1
    10    5    6 ar
    11    5   28 1
    12    6   29 1
    13    7    8 1
    14    7   30 1
    15    7   31 1
    16    8   12 1
    17    8    9 1
    18    9   10 2
    19   10   11 1
    20   10   13 1
    21   11   12 2
    22   13   14 2
    23   13   17 1
    24   14   15 1
    25   14   19 1
    26   15   16 am
    27   15   18 2
    28   16   17 1
    29   16   37 1
    30   19   20 1
    31   19   32 1
    32   19   33 1
    33   20   21 1
    34   20   24 1
    35   20   34 1
    36   21   22 2
    37   21   23 1
    38   24   35 1
    39   24   36 1
@<TRIPOS>MOLECULE
CHEMBL388746__1
   37    39     0     0     0
SMALL
USER_CHARGES

@<TRIPOS>ATOM
      1 C1         -0.0167    1.3781    0.0096 C.ar      1 <0>        -0.1005
      2 C2          1.1709    2.0855    0.0021 C.ar      1 <0>        -0.1256
      3 C3          2.3773    1.4107   -0.0130 C.ar      1 <0>        -0.0861
      4 C4          2.3960    0.0285   -0.0201 C.ar      1 <0>        -0.1331
      5 C5          1.2084   -0.6789   -0.0117 C.ar      1 <0>        -0.0847
      6 C6          0.0021   -0.0041    0.0020 C.ar      1 <0>        -0.1232
      7 C7          3.7112   -0.7071   -0.0376 C.3       1 <0>         0.1704
      8 N1          4.1518   -0.9524    1.3379 N.pl3     1 <0>        -0.1293
      9 N2          4.8850   -0.1571    2.0384 N.2       1 <0>        -0.2756
     10 C8          5.0707   -0.7153    3.2198 C.2       1 <0>         0.2249
     11 N3          4.4144   -1.8855    3.1984 N.2       1 <0>        -0.2248
     12 N4          3.8626   -1.9934    2.0376 N.2       1 <0>        -0.0374
     13 C9          5.8511   -0.1596    4.3475 C.2       1 <0>         0.1461
     14 C10         6.0287   -0.7540    5.5574 C.2       1 <0>        -0.1894
     15 C11         6.8283    0.0910    6.3486 C.2       1 <0>         0.5368
     16 N5          7.1215    1.1802    5.6083 N.am      1 <0>        -0.5693
     17 O1          6.5061    1.0128    4.3436 O.3       1 <0>        -0.0383
     18 O2          7.1899   -0.1219    7.4950 O.2       1 <0>        -0.4901
     19 C12         5.4660   -2.0871    5.9783 C.3       1 <0>        -0.0752
     20 C13         6.5097   -3.1798    5.7388 C.3       1 <0>         0.0384
     21 C14         5.9948   -4.4919    6.2720 C.2       1 <0>         0.5083
     22 O3          5.3508   -5.2331    5.5493 O.co2     1 <0>        -0.6844
     23 O4          6.2222   -4.8122    7.4262 O.co2     1 <0>        -0.6997
     24 N6          6.7669   -3.3040    4.2978 N.3       1 <0>        -0.8219
     25 H1         -0.9591    1.9053    0.0259 H         1 <0>         0.1259
     26 H2          1.1563    3.1654    0.0076 H         1 <0>         0.1270
     27 H3          3.3051    1.9634   -0.0196 H         1 <0>         0.1288
     28 H4          1.2231   -1.7588   -0.0176 H         1 <0>         0.1327
     29 H5         -0.9258   -0.5567    0.0082 H         1 <0>         0.1289
     30 H6          3.5884   -1.6586   -0.5549 H         1 <0>         0.1320
     31 H7          4.4573   -0.1052   -0.5563 H         1 <0>         0.1271
     32 H8          5.2096   -2.0553    7.0372 H         1 <0>         0.0870
     33 H9          4.5716   -2.3047    5.3944 H         1 <0>         0.0942
     34 H10         7.4350   -2.9172    6.2516 H         1 <0>         0.0707
     35 H11         5.9237   -3.5472    3.7997 H         1 <0>         0.3494
     36 H12         7.1735   -2.4575    3.9288 H         1 <0>         0.3031
     37 H13         7.6585    1.9375    5.8895 H         1 <0>         0.4570
@<TRIPOS>BOND
     1    1    6 ar
     2    1    2 ar
     3    1   25 1
     4    2    3 ar
     5    2   26 1
     6    3    4 ar
     7    3   27 1
     8    4    5 ar
     9    4    7 1
    10    5    6 ar
    11    5   28 1
    12    6   29 1
    13    7    8 1
    14    7   30 1
    15    7   31 1
    16    8   12 1
    17    8    9 1
    18    9   10 2
    19   10   11 1
    20   10   13 1
    21   11   12 2
    22   13   14 2
    23   13   17 1
    24   14   15 1
    25   14   19 1
    26   15   16 am
    27   15   18 2
    28   16   17 1
    29   16   37 1
    30   19   20 1
    31   19   32 1
    32   19   33 1
    33   20   21 1
    34   20   24 1
    35   20   34 1
    36   21   22 2
    37   21   23 1
    38   24   35 1
    39   24   36 1
@<TRIPOS>MOLECULE
CHEMBL155265
   21    22     0     0     0
SMALL
USER_CHARGES

@<TRIPOS>ATOM
      1 C1         -0.0625    1.2643    0.0386 C.ar      1 <0>        -0.0709
      2 C2          1.0847    2.0702    0.0768 C.ar      1 <0>         0.2346
      3 C3          2.3534    1.4664    0.0299 C.ar      1 <0>         0.0662
      4 C4          2.4543    0.0811   -0.0537 C.ar      1 <0>        -0.0385
      5 C5          1.3120   -0.6888   -0.0898 C.ar      1 <0>        -0.0737
      6 C6          0.0592   -0.0925   -0.0434 C.ar      1 <0>         0.0323
      7 N1         -1.1562   -0.9364   -0.0827 N.pl3     1 <0>         0.0263
      8 O1         -1.2910   -1.7618   -0.9558 O.2       1 <0>        -0.1041
      9 O2         -2.0141   -0.8003    0.7581 O.3       1 <0>        -0.1527
     10 N2          1.4215   -2.1623   -0.1786 N.pl3     1 <0>         0.0450
     11 O3          2.5016   -2.6792   -0.3452 O.2       1 <0>        -0.1684
     12 O4          0.4308   -2.8489   -0.0846 O.3       1 <0>        -0.1563
     13 N3          3.4941    2.2466    0.0670 N.am      1 <0>        -0.6270
     14 C7          3.3678    3.5891    0.1487 C.2       1 <0>         0.4795
     15 C8          2.0192    4.1811    0.1956 C.2       1 <0>         0.4334
     16 N4          0.9643    3.4115    0.1583 N.2       1 <0>        -0.5942
     17 O5          1.8732    5.5256    0.2775 O.3       1 <0>        -0.5771
     18 O6          4.3551    4.3004    0.1834 O.2       1 <0>        -0.4980
     19 H1         -1.0422    1.7172    0.0786 H         1 <0>         0.1688
     20 H2          3.4256   -0.3896   -0.0905 H         1 <0>         0.1640
     21 H3          4.3723    1.8359    0.0353 H         1 <0>         0.4109
@<TRIPOS>BOND
     1    1    6 ar
     2    1    2 ar
     3    1   19 1
     4    2   16 1
     5    2    3 ar
     6    3    4 ar
     7    3   13 1
     8    4    5 ar
     9    4   20 1
    10    5    6 ar
    11    5   10 1
    12    6    7 1
    13    7    8 2
    14    7    9 1
    15   10   11 2
    16   10   12 1
    17   13   14 am
    18   13   21 1
    19   14   15 1
    20   14   18 2
    21   15   16 2
    22   15   17 1
@<TRIPOS>MOLECULE
CHEMBL155265__1
   22    23     0     0     0
SMALL
USER_CHARGES

@<TRIPOS>ATOM
      1 C1          0.0382    1.2610    0.5152 C.ar      1 <0>        -0.0552
      2 C2          0.8758    2.0183   -0.2964 C.ar      1 <0>         0.1719
      3 C3          2.0393    1.4471   -0.8145 C.ar      1 <0>         0.1720
      4 C4          2.3510    0.1254   -0.5146 C.ar      1 <0>        -0.0553
      5 C5          1.5125   -0.6159    0.2921 C.ar      1 <0>         0.0166
      6 C6          0.3581   -0.0491    0.8060 C.ar      1 <0>         0.0165
      7 N1         -0.5357   -0.8520    1.6707 N.pl3     1 <0>         0.0206
      8 O1         -1.7351   -0.7324    1.5766 O.2       1 <0>        -0.1120
      9 O2         -0.0664   -1.6272    2.4709 O.3       1 <0>        -0.1151
     10 N2          1.8476   -2.0224    0.6091 N.pl3     1 <0>         0.0206
     11 O3          2.9970   -2.3396    0.8090 O.2       1 <0>        -0.1120
     12 O4          0.9720   -2.8539    0.6680 O.3       1 <0>        -0.1151
     13 N3          2.8903    2.1887   -1.6291 N.am      1 <0>        -0.6303
     14 C7          2.5958    3.4709   -1.9250 C.2       1 <0>         0.5137
     15 C8          1.3528    4.0814   -1.3711 C.2       1 <0>         0.5137
     16 N4          0.5461    3.3396   -0.5854 N.am      1 <0>        -0.6303
     17 O5          1.0696    5.2348   -1.6257 O.2       1 <0>        -0.4318
     18 O6          3.3354    4.1221   -2.6351 O.2       1 <0>        -0.4318
     19 H1         -0.8610    1.7001    0.9216 H         1 <0>         0.1865
     20 H2          3.2498   -0.3211   -0.9137 H         1 <0>         0.1866
     21 H3          3.6965    1.7826   -1.9842 H         1 <0>         0.4351
     22 H4         -0.2650    3.7271   -0.2210 H         1 <0>         0.4351
@<TRIPOS>BOND
     1    1    6 ar
     2    1    2 ar
     3    1   19 1
     4    2   16 1
     5    2    3 ar
     6    3    4 ar
     7    3   13 1
     8    4    5 ar
     9    4   20 1
    10    5    6 ar
    11    5   10 1
    12    6    7 1
    13    7    8 2
    14    7    9 1
    15   10   11 2
    16   10   12 1
    17   13   14 am
    18   13   21 1
    19   14   15 1
    20   14   18 2
    21   15   16 am
    22   15   17 2
    23   16   22 1
@<TRIPOS>MOLECULE
CHEMBL432224
   44    46     0     0     0
SMALL
USER_CHARGES

@<TRIPOS>ATOM
      1 C1          1.9406   -1.3943    2.3744 C.3       1 <0>        -0.1546
      2 C2          1.0165   -1.3711    1.1552 C.3       1 <0>        -0.1209
      3 C3          1.7446   -1.9733   -0.0482 C.3       1 <0>        -0.0874
      4 C4          2.9319   -1.0842   -0.4232 C.3       1 <0>        -0.1406
      5 C5          0.7816   -2.0649   -1.2335 C.3       1 <0>         0.0560
      6 N1          1.4420   -2.7564   -2.3487 N.3       1 <0>        -0.5264
      7 C6          0.7537   -2.4831   -3.6205 C.3       1 <0>         0.0465
      8 C7          1.6685   -2.9094   -4.7688 C.3       1 <0>        -0.0910
      9 C8          2.1648   -4.3141   -4.5378 C.ar      1 <0>         0.0173
     10 C9          2.7047   -5.0089   -5.6133 C.ar      1 <0>        -0.0429
     11 C10         3.1760   -6.2937   -5.4539 C.ar      1 <0>        -0.0507
     12 C11         3.1132   -6.9045   -4.2063 C.ar      1 <0>         0.1165
     13 C12         2.5703   -6.2098   -3.1265 C.ar      1 <0>         0.1793
     14 C13         2.0939   -4.9097   -3.2993 C.ar      1 <0>        -0.0831
     15 C14         1.5057   -4.2012   -2.1072 C.3       1 <0>         0.0899
     16 N2          2.4960   -6.8010   -1.8680 N.am      1 <0>        -0.6343
     17 C15         2.9519   -8.0568   -1.6841 C.2       1 <0>         0.5117
     18 C16         3.5332   -8.7997   -2.8396 C.2       1 <0>         0.5117
     19 N3          3.5918   -8.2020   -4.0472 N.am      1 <0>        -0.6306
     20 O1          3.9495   -9.9314   -2.6943 O.2       1 <0>        -0.4511
     21 O2          2.8902   -8.5775   -0.5885 O.2       1 <0>        -0.4464
     22 N4          2.7739   -4.3625   -6.9431 N.pl3     1 <0>         0.0396
     23 O3          3.2425   -4.9617   -7.8828 O.2       1 <0>        -0.1578
     24 O4          2.3617   -3.2355   -7.0896 O.3       1 <0>        -0.1479
     25 H1          2.2218   -2.4234    2.5976 H         1 <0>         0.0526
     26 H2          2.8365   -0.8107    2.1624 H         1 <0>         0.0584
     27 H3          1.4219   -0.9652    3.2316 H         1 <0>         0.0542
     28 H4          0.1207   -1.9546    1.3671 H         1 <0>         0.0598
     29 H5          0.7354   -0.3419    0.9319 H         1 <0>         0.0639
     30 H6          2.1036   -2.9706    0.2062 H         1 <0>         0.0669
     31 H7          2.5674   -0.1119   -0.7546 H         1 <0>         0.0517
     32 H8          3.5768   -0.9535    0.4458 H         1 <0>         0.0519
     33 H9          3.4976   -1.5537   -1.2280 H         1 <0>         0.0631
     34 H10        -0.1079   -2.6208   -0.9369 H         1 <0>         0.0416
     35 H11         0.4949   -1.0611   -1.5471 H         1 <0>         0.0832
     36 H12        -0.1760   -3.0504   -3.6630 H         1 <0>         0.0453
     37 H13         0.5395   -1.4172   -3.6992 H         1 <0>         0.0945
     38 H14         1.1139   -2.8712   -5.7064 H         1 <0>         0.1178
     39 H15         2.5189   -2.2299   -4.8253 H         1 <0>         0.1073
     40 H16         3.5929   -6.8255   -6.2964 H         1 <0>         0.1708
     41 H17         2.1272   -4.3926   -1.2325 H         1 <0>         0.0947
     42 H18         0.5003   -4.5799   -1.9234 H         1 <0>         0.0634
     43 H19         3.9672   -8.6767   -4.8053 H         1 <0>         0.4297
     44 H20         2.1164   -6.3092   -1.1231 H         1 <0>         0.4265
@<TRIPOS>BOND
     1    1    2 1
     2    1   25 1
     3    1   26 1
     4    1   27 1
     5    2    3 1
     6    2   28 1
     7    2   29 1
     8    3    4 1
     9    3    5 1
    10    3   30 1
    11    4   31 1
    12    4   32 1
    13    4   33 1
    14    5    6 1
    15    5   34 1
    16    5   35 1
    17    6   15 1
    18    6    7 1
    19    7    8 1
    20    7   36 1
    21    7   37 1
    22    8    9 1
    23    8   38 1
    24    8   39 1
    25    9   14 ar
    26    9   10 ar
    27   10   11 ar
    28   10   22 1
    29   11   12 ar
    30   11   40 1
    31   12   19 1
    32   12   13 ar
    33   13   14 ar
    34   13   16 1
    35   14   15 1
    36   15   41 1
    37   15   42 1
    38   16   17 am
    39   16   44 1
    40   17   18 1
    41   17   21 2
    42   18   19 am
    43   18   20 2
    44   19   43 1
    45   22   23 2
    46   22   24 1
@<TRIPOS>MOLECULE
CHEMBL432224__1
   44    46     0     0     0
SMALL
USER_CHARGES

@<TRIPOS>ATOM
      1 C1         -0.0187    1.5258    0.0104 C.3       1 <0>        -0.1542
      2 C2          0.0021   -0.0041    0.0020 C.3       1 <0>        -0.1203
      3 C3          0.7182   -0.4975   -1.2568 C.3       1 <0>        -0.0887
      4 C4          2.1873   -0.0730   -1.2073 C.3       1 <0>        -0.1413
      5 C5          0.6303   -2.0233   -1.3286 C.3       1 <0>         0.0562
      6 N1          1.2121   -2.4882   -2.5948 N.3       1 <0>        -0.5263
      7 C6          0.3951   -2.0570   -3.7404 C.3       1 <0>         0.0420
      8 C7          1.2149   -2.2403   -5.0177 C.3       1 <0>        -0.0907
      9 C8          1.7925   -3.6322   -5.0637 C.ar      1 <0>         0.0174
     10 C9          2.2584   -4.1138   -6.2811 C.ar      1 <0>        -0.0429
     11 C10         2.7990   -5.3775   -6.3758 C.ar      1 <0>        -0.0506
     12 C11         2.8818   -6.1818   -5.2445 C.ar      1 <0>         0.1165
     13 C12         2.4133   -5.7011   -4.0227 C.ar      1 <0>         0.1794
     14 C13         1.8657   -4.4204   -3.9382 C.ar      1 <0>        -0.0828
     15 C14         1.3623   -3.9467   -2.5999 C.3       1 <0>         0.0911
     16 N2          2.4848   -6.4885   -2.8764 N.am      1 <0>        -0.6342
     17 C15         3.0112   -7.7284   -2.9409 C.2       1 <0>         0.5118
     18 C16         3.5127   -8.2422   -4.2483 C.2       1 <0>         0.5116
     19 N3          3.4302   -7.4575   -5.3421 N.am      1 <0>        -0.6306
     20 O1          3.9906   -9.3561   -4.3270 O.2       1 <0>        -0.4512
     21 O2          3.0767   -8.4196   -1.9443 O.2       1 <0>        -0.4466
     22 N4          2.1726   -3.2610   -7.4879 N.pl3     1 <0>         0.0395
     23 O3          2.5762   -3.6742   -8.5500 O.2       1 <0>        -0.1578
     24 O4          1.6989   -2.1513   -7.4115 O.3       1 <0>        -0.1479
     25 H1          1.0039    1.9031    0.0027 H         1 <0>         0.0582
     26 H2         -0.5459    1.8868   -0.8726 H         1 <0>         0.0537
     27 H3         -0.5289    1.8773    0.9072 H         1 <0>         0.0538
     28 H4          0.5293   -0.3651    0.8851 H         1 <0>         0.0626
     29 H5         -1.0205   -0.3814    0.0098 H         1 <0>         0.0599
     30 H6          0.2444   -0.0644   -2.1377 H         1 <0>         0.0738
     31 H7          2.6611   -0.5061   -0.3263 H         1 <0>         0.0498
     32 H8          2.6975   -0.4246   -2.1040 H         1 <0>         0.0650
     33 H9          2.2499    1.0140   -1.1561 H         1 <0>         0.0526
     34 H10         1.1806   -2.4586   -0.4944 H         1 <0>         0.0791
     35 H11        -0.4142   -2.3300   -1.2744 H         1 <0>         0.0404
     36 H12        -0.5085   -2.6642   -3.7949 H         1 <0>         0.0451
     37 H13         0.1275   -1.0067   -3.6246 H         1 <0>         0.0973
     38 H14         0.5729   -2.0861   -5.8849 H         1 <0>         0.1175
     39 H15         2.0253   -1.5116   -5.0352 H         1 <0>         0.1070
     40 H16         3.1574   -5.7428   -7.3268 H         1 <0>         0.1707
     41 H17         2.0716   -4.2380   -1.8252 H         1 <0>         0.0945
     42 H18         0.3965   -4.4085   -2.3945 H         1 <0>         0.0632
     43 H19         3.7528   -7.7825   -6.1972 H         1 <0>         0.4297
     44 H20         2.1561   -6.1448   -2.0310 H         1 <0>         0.4268
@<TRIPOS>BOND
     1    1    2 1
     2    1   25 1
     3    1   26 1
     4    1   27 1
     5    2    3 1
     6    2   28 1
     7    2   29 1
     8    3    4 1
     9    3    5 1
    10    3   30 1
    11    4   31 1
    12    4   32 1
    13    4   33 1
    14    5    6 1
    15    5   34 1
    16    5   35 1
    17    6   15 1
    18    6    7 1
    19    7    8 1
    20    7   36 1
    21    7   37 1
    22    8    9 1
    23    8   38 1
    24    8   39 1
    25    9   14 ar
    26    9   10 ar
    27   10   11 ar
    28   10   22 1
    29   11   12 ar
    30   11   40 1
    31   12   19 1
    32   12   13 ar
    33   13   14 ar
    34   13   16 1
    35   14   15 1
    36   15   41 1
    37   15   42 1
    38   16   17 am
    39   16   44 1
    40   17   18 1
    41   17   21 2
    42   18   19 am
    43   18   20 2
    44   19   43 1
    45   22   23 2
    46   22   24 1
@<TRIPOS>MOLECULE
CHEMBL65293
   25    26     0     0     0
SMALL
USER_CHARGES

@<TRIPOS>ATOM
      1 C1          1.2059    0.4210   -1.3668 C.ar      1 <0>        -0.0004
      2 C2          2.2816    0.0579   -0.5497 C.ar      1 <0>        -0.0566
      3 C3          3.4468   -0.6394   -1.0970 C.2       1 <0>        -0.0641
      4 C4          4.4599   -0.9660   -0.2570 C.2       1 <0>        -0.6167
      5 C5          4.3817   -0.6358    1.1130 C.2       1 <0>         0.5445
      6 N1          3.3156    0.0040    1.6248 N.am      1 <0>        -0.6333
      7 C6          2.2529    0.3642    0.8238 C.ar      1 <0>         0.2191
      8 C7          1.1500    1.0267    1.3529 C.ar      1 <0>        -0.0948
      9 C8          0.1013    1.3744    0.5292 C.ar      1 <0>         0.0208
     10 C9          0.1336    1.0713   -0.8253 C.ar      1 <0>        -0.0403
     11 N2         -1.0046    1.4555   -1.6902 N.pl3     1 <0>         0.0353
     12 O1         -1.3727    0.7127   -2.5703 O.2       1 <0>        -0.1319
     13 O2         -1.5661    2.5120   -1.5166 O.3       1 <0>        -0.1449
     14 N3         -1.0712    2.0793    1.0942 N.pl3     1 <0>         0.0319
     15 O3         -0.9165    2.9231    1.9461 O.2       1 <0>        -0.1360
     16 O4         -2.1836    1.8111    0.7039 O.3       1 <0>        -0.1333
     17 O5          5.3034   -0.9387    1.8507 O.2       1 <0>        -0.4613
     18 P1          5.9207   -1.8309   -0.8962 P.3       1 <0>         2.1948
     19 O6          6.0749   -3.2071   -0.1636 O.2       1 <0>        -1.1514
     20 O7          5.7520   -2.0742   -2.4346 O.3       1 <0>        -1.1587
     21 O8          7.1969   -0.9583   -0.6424 O.3       1 <0>        -1.1515
     22 H1          1.2250    0.1922   -2.4221 H         1 <0>         0.1788
     23 H2          3.4982   -0.8885   -2.1467 H         1 <0>         0.1696
     24 H3          1.1155    1.2672    2.4052 H         1 <0>         0.1707
     25 H4          3.2939    0.2152    2.5713 H         1 <0>         0.4098
@<TRIPOS>BOND
     1    1   10 ar
     2    1    2 ar
     3    1   22 1
     4    2    7 ar
     5    2    3 1
     6    3    4 2
     7    3   23 1
     8    4    5 1
     9    4   18 1
    10    5    6 am
    11    5   17 2
    12    6    7 1
    13    6   25 1
    14    7    8 ar
    15    8    9 ar
    16    8   24 1
    17    9   10 ar
    18    9   14 1
    19   10   11 1
    20   11   12 2
    21   11   13 1
    22   14   15 2
    23   14   16 1
    24   18   19 2
    25   18   20 1
    26   18   21 1
@<TRIPOS>MOLECULE
CHEMBL65293__1
   24    25     0     0     0
SMALL
USER_CHARGES

@<TRIPOS>ATOM
      1 C1          2.4487    1.0721    0.5587 C.ar      1 <0>         0.0169
      2 C2          1.6456    1.9940   -0.1309 C.ar      1 <0>        -0.1591
      3 C3          2.0422    3.3376   -0.2863 C.ar      1 <0>        -0.0620
      4 C4          1.2150    4.1799   -0.9675 C.ar      1 <0>        -0.6643
      5 C5          0.0076    3.7005   -1.4905 C.ar      1 <0>         0.4612
      6 N1         -0.3574    2.4455   -1.3424 N.ar      1 <0>        -0.6037
      7 C6          0.4123    1.5715   -0.6838 C.ar      1 <0>         0.2293
      8 C7          0.0170    0.2318   -0.5290 C.ar      1 <0>        -0.0643
      9 C8          0.8198   -0.6359    0.1459 C.ar      1 <0>         0.0145
     10 C9          2.0330   -0.2183    0.6883 C.ar      1 <0>        -0.1305
     11 N2          2.8809   -1.1894    1.4158 N.pl3     1 <0>         0.0619
     12 O1          3.4803   -0.8446    2.4074 O.2       1 <0>        -0.1834
     13 O2          2.9739   -2.3274    1.0183 O.3       1 <0>        -0.1877
     14 N3          0.3974   -2.0456    0.3052 N.pl3     1 <0>         0.0435
     15 O3         -0.1608   -2.6157   -0.6031 O.2       1 <0>        -0.1669
     16 O4          0.6105   -2.6268    1.3437 O.3       1 <0>        -0.1616
     17 O5         -0.8049    4.5505   -2.1652 O.3       1 <0>        -0.5751
     18 P1          1.6770    5.9191   -1.1958 P.3       1 <0>         2.2419
     19 O6          2.4950    6.0723   -2.5231 O.2       1 <0>        -1.1859
     20 O7          0.3820    6.7972   -1.2761 O.3       1 <0>        -1.1632
     21 O8          2.5529    6.3900    0.0148 O.3       1 <0>        -1.1896
     22 H1          3.3930    1.3833    0.9802 H         1 <0>         0.1460
     23 H2          2.9768    3.6905    0.1240 H         1 <0>         0.1304
     24 H3         -0.9205   -0.1080   -0.9438 H         1 <0>         0.1518
@<TRIPOS>BOND
     1    1   10 ar
     2    1    2 ar
     3    1   22 1
     4    2    7 ar
     5    2    3 ar
     6    3    4 ar
     7    3   23 1
     8    4    5 ar
     9    4   18 1
    10    5    6 ar
    11    5   17 1
    12    6    7 ar
    13    7    8 ar
    14    8    9 ar
    15    8   24 1
    16    9   10 ar
    17    9   14 1
    18   10   11 1
    19   11   12 2
    20   11   13 1
    21   14   15 2
    22   14   16 1
    23   18   19 2
    24   18   20 1
    25   18   21 1
@<TRIPOS>MOLECULE
CHEMBL301536
   41    42     0     0     0
SMALL
USER_CHARGES

@<TRIPOS>ATOM
      1 C1         -0.0164    1.3571    0.0095 C.ar      1 <0>        -0.1264
      2 C2          1.1682    2.0912    0.0021 C.ar      1 <0>        -0.1205
      3 C3          2.3779    1.4680   -0.0127 C.ar      1 <0>        -0.1085
      4 C4          2.4369    0.0628   -0.0208 C.ar      1 <0>        -0.0462
      5 C5          3.6674   -0.6114   -0.0356 C.ar      1 <0>        -0.1150
      6 C6          3.6851   -1.9955   -0.0428 C.ar      1 <0>        -0.0279
      7 C7          2.4829   -2.7250   -0.0354 C.ar      1 <0>        -0.1084
      8 C8          1.2833   -2.0897   -0.0211 C.ar      1 <0>        -0.1047
      9 C9          1.2316   -0.6839   -0.0134 C.ar      1 <0>        -0.0588
     10 C10         0.0021   -0.0041    0.0020 C.ar      1 <0>        -0.1022
     11 C11         4.9772   -2.7120   -0.0589 C.2       1 <0>        -0.1632
     12 C12         5.0001   -4.0379   -0.0658 C.2       1 <0>        -0.0931
     13 C13         6.3179   -4.7687   -0.0822 C.3       1 <0>        -0.0748
     14 C14         6.3740   -5.7456    1.0940 C.3       1 <0>        -0.1647
     15 H1          6.1873   -5.2068    2.0230 H         1 <0>         0.0515
     16 C15         7.7576   -6.3962    1.1510 C.3       1 <0>        -0.1020
     17 C16         7.8557   -7.2777    2.3977 C.3       1 <0>        -0.0436
     18 H2          7.0367   -7.9970    2.3994 H         1 <0>         0.1358
     19 C17         9.1707   -8.0137    2.3903 C.2       1 <0>         0.4939
     20 O1         10.1515   -7.5148    2.9154 O.co2     1 <0>        -0.6848
     21 O2          9.2539   -9.1081    1.8594 O.co2     1 <0>        -0.6392
     22 N1          7.7717   -6.4372    3.5995 N.4       1 <0>        -0.6112
     23 C18         5.3247   -6.8117    0.9120 C.2       1 <0>         0.4955
     24 O3          5.3520   -7.5324   -0.0711 O.co2     1 <0>        -0.6761
     25 O4          4.4484   -6.9536    1.7477 O.co2     1 <0>        -0.7022
     26 H3         -0.9634    1.8759    0.0259 H         1 <0>         0.1195
     27 H4          1.1256    3.1704    0.0080 H         1 <0>         0.1195
     28 H5          3.2880    2.0495   -0.0187 H         1 <0>         0.1242
     29 H6          4.5930   -0.0550   -0.0417 H         1 <0>         0.1265
     30 H7          2.5144   -3.8045   -0.0416 H         1 <0>         0.1310
     31 H8          0.3685   -2.6637   -0.0156 H         1 <0>         0.1273
     32 H9         -0.9244   -0.5590    0.0082 H         1 <0>         0.1247
     33 H10         5.9030   -2.1559   -0.0649 H         1 <0>         0.1164
     34 H11         4.0743   -4.5940   -0.0598 H         1 <0>         0.1182
     35 H12         6.4161   -5.3199   -1.0174 H         1 <0>         0.0879
     36 H13         7.1330   -4.0500    0.0032 H         1 <0>         0.0595
     37 H14         7.9087   -7.0073    0.2611 H         1 <0>         0.1073
     38 H15         8.5224   -5.6207    1.1933 H         1 <0>         0.0684
     39 H16         8.5298   -5.7713    3.5979 H         1 <0>         0.4244
     40 H17         6.8912   -5.9444    3.6045 H         1 <0>         0.4188
     41 H18         7.8364   -7.0185    4.4217 H         1 <0>         0.4231
@<TRIPOS>BOND
     1    1   10 ar
     2    1    2 ar
     3    1   26 1
     4    2    3 ar
     5    2   27 1
     6    3    4 ar
     7    3   28 1
     8    4    9 ar
     9    4    5 ar
    10    5    6 ar
    11    5   29 1
    12    6    7 ar
    13    6   11 1
    14    7    8 ar
    15    7   30 1
    16    8    9 ar
    17    8   31 1
    18    9   10 ar
    19   10   32 1
    20   11   12 2
    21   11   33 1
    22   12   13 1
    23   12   34 1
    24   13   14 1
    25   13   35 1
    26   13   36 1
    27   14   15 1
    28   14   16 1
    29   14   23 1
    30   16   17 1
    31   16   37 1
    32   16   38 1
    33   17   18 1
    34   17   19 1
    35   17   22 1
    36   19   20 2
    37   19   21 1
    38   22   39 1
    39   22   40 1
    40   22   41 1
    41   23   24 2
    42   23   25 1
@<TRIPOS>MOLECULE
CHEMBL121388
   23    23     0     0     0
SMALL
USER_CHARGES

@<TRIPOS>ATOM
      1 C1         -0.0165    1.3652    0.0095 C.2       1 <0>         0.1397
      2 C2          1.1478    2.0496    0.0021 C.2       1 <0>        -0.1935
      3 C3          2.3689    1.3316   -0.0134 C.2       1 <0>         0.5518
      4 O1          3.4315    1.9265   -0.0200 O.2       1 <0>        -0.4741
      5 N1          2.3437   -0.0165   -0.0204 N.am      1 <0>        -0.6499
      6 H1          3.1758   -0.5150   -0.0310 H         1 <0>         0.4421
      7 C4          1.1691   -0.6734   -0.0123 C.2       1 <0>         0.6900
      8 O2          1.1624   -1.8893   -0.0179 O.2       1 <0>        -0.5055
      9 N2          0.0021   -0.0041    0.0020 N.am      1 <0>        -0.5444
     10 C5         -1.2606   -0.7470    0.0101 C.3       1 <0>         0.1055
     11 C6         -1.7139   -0.9979   -1.4295 C.3       1 <0>        -0.0667
     12 H2         -0.9978   -1.6517   -1.9272 H         1 <0>         0.1449
     13 C7         -3.0711   -1.6527   -1.4219 C.2       1 <0>         0.4932
     14 O3         -4.0790   -0.9669   -1.4400 O.co2     1 <0>        -0.6575
     15 O4         -3.1613   -2.8684   -1.3976 O.co2     1 <0>        -0.6189
     16 N3         -1.7912    0.2809   -2.1484 N.4       1 <0>        -0.6168
     17 Cl1         1.1480    3.7856    0.0109 Cl        1 <0>         0.0124
     18 H3         -0.9574    1.8952    0.0259 H         1 <0>         0.1908
     19 H4         -1.1175   -1.7010    0.5175 H         1 <0>         0.1483
     20 H5         -2.0201   -0.1669    0.5343 H         1 <0>         0.1278
     21 H6         -2.0902    0.1154   -3.0978 H         1 <0>         0.4390
     22 H7         -2.4541    0.8862   -1.6877 H         1 <0>         0.4338
     23 H8         -0.8825    0.7194   -2.1535 H         1 <0>         0.4080
@<TRIPOS>BOND
     1    1    9 1
     2    1    2 2
     3    1   18 1
     4    2    3 1
     5    2   17 1
     6    3    4 2
     7    3    5 am
     8    5    6 1
     9    5    7 am
    10    7    8 2
    11    7    9 am
    12    9   10 1
    13   10   11 1
    14   10   19 1
    15   10   20 1
    16   11   12 1
    17   11   13 1
    18   11   16 1
    19   13   14 2
    20   13   15 1
    21   16   21 1
    22   16   22 1
    23   16   23 1
@<TRIPOS>MOLECULE
CHEMBL121388__1
   22    22     0     0     0
SMALL
USER_CHARGES

@<TRIPOS>ATOM
      1 C1         -0.0164    1.3582    0.0095 C.2       1 <0>         0.0896
      2 C2          1.1577    2.0366    0.0019 C.2       1 <0>        -0.1629
      3 C3          2.3646    1.3114   -0.0135 C.2       1 <0>         0.4702
      4 O1          3.5487    1.9634   -0.0208 O.3       1 <0>        -0.6398
      5 N1          2.3339   -0.0124   -0.0203 N.2       1 <0>        -0.6288
      6 C4          1.1731   -0.6670   -0.0127 C.2       1 <0>         0.6376
      7 O2          1.1721   -1.8868   -0.0193 O.2       1 <0>        -0.5748
      8 N2          0.0021   -0.0041    0.0020 N.am      1 <0>        -0.5589
      9 C5         -1.2584   -0.7506    0.0105 C.3       1 <0>         0.1014
     10 C6         -1.7116   -1.0027   -1.4289 C.3       1 <0>        -0.0606
     11 H1         -0.9938   -1.6545   -1.9269 H         1 <0>         0.1411
     12 C7         -3.0670   -1.6614   -1.4208 C.2       1 <0>         0.4969
     13 O3         -4.0768   -0.9785   -1.4385 O.co2     1 <0>        -0.6718
     14 O4         -3.1537   -2.8773   -1.3965 O.co2     1 <0>        -0.6307
     15 N3         -1.7928    0.2758   -2.1478 N.4       1 <0>        -0.6140
     16 Cl1         1.1726    3.7725    0.0106 Cl        1 <0>        -0.0574
     17 H2         -0.9553    1.8916    0.0258 H         1 <0>         0.1557
     18 H3         -1.1125   -1.7042    0.5178 H         1 <0>         0.1335
     19 H4         -2.0194   -0.1727    0.5351 H         1 <0>         0.1004
     20 H5         -2.4573    0.8792   -1.6868 H         1 <0>         0.4284
     21 H6         -0.8854    0.7169   -2.1532 H         1 <0>         0.4150
     22 H7         -2.0917    0.1096   -3.0970 H         1 <0>         0.4296
@<TRIPOS>BOND
     1    1    8 1
     2    1    2 2
     3    1   17 1
     4    2    3 1
     5    2   16 1
     6    3    4 1
     7    3    5 2
     8    5    6 1
     9    6    7 2
    10    6    8 am
    11    8    9 1
    12    9   10 1
    13    9   18 1
    14    9   19 1
    15   10   11 1
    16   10   12 1
    17   10   15 1
    18   12   13 2
    19   12   14 1
    20   15   20 1
    21   15   21 1
    22   15   22 1
@<TRIPOS>MOLECULE
CHEMBL302680
   44    44     0     0     0
SMALL
USER_CHARGES

@<TRIPOS>ATOM
      1 C1         -0.0187    1.5258    0.0104 C.3       1 <0>        -0.1433
      2 C2          0.0021   -0.0041    0.0020 C.3       1 <0>        -0.0564
      3 C3          0.7421   -0.5109    1.2415 C.3       1 <0>        -0.1433
      4 C4         -1.4117   -0.5257    0.0127 C.ar      1 <0>        -0.0887
      5 C5         -2.2573   -0.2021    1.0588 C.ar      1 <0>        -0.1150
      6 C6         -3.5528   -0.6765    1.0745 C.ar      1 <0>        -0.1167
      7 C7         -4.0097   -1.4838    0.0322 C.ar      1 <0>        -0.0418
      8 C8         -3.1520   -1.8060   -1.0202 C.ar      1 <0>        -0.1143
      9 C9         -1.8602   -1.3213   -1.0264 C.ar      1 <0>        -0.1127
     10 C10        -5.3963   -1.9958    0.0429 C.2       1 <0>        -0.1593
     11 C11        -5.8274   -2.7626   -0.9489 C.2       1 <0>        -0.0986
     12 C12        -7.2411   -3.2846   -0.9379 C.3       1 <0>        -0.0738
     13 C13        -7.9414   -2.8876   -2.2390 C.3       1 <0>        -0.1647
     14 H1         -7.8780   -1.8075   -2.3708 H         1 <0>         0.0508
     15 C14        -9.4111   -3.3082   -2.1760 C.3       1 <0>        -0.1011
     16 C15       -10.1404   -2.8019   -3.4220 C.3       1 <0>        -0.0444
     17 H2         -9.6246   -3.1568   -4.3143 H         1 <0>         0.1363
     18 C16       -11.5558   -3.3193   -3.4207 C.2       1 <0>         0.4955
     19 O1        -12.4850   -2.5526   -3.2329 O.co2     1 <0>        -0.6898
     20 O2        -11.7717   -4.5047   -3.6075 O.co2     1 <0>        -0.6370
     21 N1        -10.1561   -1.3330   -3.4172 N.4       1 <0>        -0.6096
     22 C17        -7.2714   -3.5756   -3.4003 C.2       1 <0>         0.4957
     23 O3         -7.2315   -4.7933   -3.4469 O.co2     1 <0>        -0.6759
     24 O4         -6.7691   -2.9146   -4.2932 O.co2     1 <0>        -0.7030
     25 H3          1.0039    1.9031    0.0027 H         1 <0>         0.0553
     26 H4         -0.5459    1.8868   -0.8726 H         1 <0>         0.0558
     27 H5         -0.5289    1.8773    0.9072 H         1 <0>         0.0555
     28 H6          0.5123   -0.3556   -0.8948 H         1 <0>         0.0757
     29 H7          0.2319   -0.1594    2.1383 H         1 <0>         0.0556
     30 H8          0.7568   -1.6008    1.2356 H         1 <0>         0.0557
     31 H9          1.7647   -0.1336    1.2338 H         1 <0>         0.0553
     32 H10        -1.9025    0.4228    1.8650 H         1 <0>         0.1172
     33 H11        -4.2118   -0.4238    1.8921 H         1 <0>         0.1195
     34 H12        -3.4996   -2.4304   -1.8299 H         1 <0>         0.1278
     35 H13        -1.1964   -1.5669   -1.8422 H         1 <0>         0.1198
     36 H14        -6.0582   -1.7452    0.8587 H         1 <0>         0.1140
     37 H15        -5.1656   -3.0131   -1.7647 H         1 <0>         0.1170
     38 H16        -7.2266   -4.3709   -0.8499 H         1 <0>         0.0870
     39 H17        -7.7791   -2.8586   -0.0911 H         1 <0>         0.0582
     40 H18        -9.4764   -4.3955   -2.1335 H         1 <0>         0.1112
     41 H19        -9.8733   -2.8815   -1.2859 H         1 <0>         0.0649
     42 H20        -9.2084   -0.9865   -3.4181 H         1 <0>         0.4182
     43 H21       -10.6370   -0.9990   -4.2389 H         1 <0>         0.4248
     44 H22       -10.6335   -1.0044   -2.5912 H         1 <0>         0.4226
@<TRIPOS>BOND
     1    1    2 1
     2    1   25 1
     3    1   26 1
     4    1   27 1
     5    2    3 1
     6    2    4 1
     7    2   28 1
     8    3   29 1
     9    3   30 1
    10    3   31 1
    11    4    9 ar
    12    4    5 ar
    13    5    6 ar
    14    5   32 1
    15    6    7 ar
    16    6   33 1
    17    7    8 ar
    18    7   10 1
    19    8    9 ar
    20    8   34 1
    21    9   35 1
    22   10   11 2
    23   10   36 1
    24   11   12 1
    25   11   37 1
    26   12   13 1
    27   12   38 1
    28   12   39 1
    29   13   14 1
    30   13   15 1
    31   13   22 1
    32   15   16 1
    33   15   40 1
    34   15   41 1
    35   16   17 1
    36   16   18 1
    37   16   21 1
    38   18   19 2
    39   18   20 1
    40   21   42 1
    41   21   43 1
    42   21   44 1
    43   22   23 2
    44   22   24 1
@<TRIPOS>MOLECULE
CHEMBL221321
   35    36     0     0     0
SMALL
USER_CHARGES

@<TRIPOS>ATOM
      1 C1          0.6011    0.5352    1.1615 C.2       1 <0>        -0.1592
      2 C2          1.6501    1.3916    1.0670 C.2       1 <0>        -0.2865
      3 S1          1.7387    1.7563   -0.5705 S.3       1 <0>         0.2005
      4 C3          0.3739    0.7689   -1.1542 C.2       1 <0>        -0.1669
      5 C4         -0.0842    0.1910    0.0236 C.2       1 <0>        -0.1302
      6 C5         -1.2581   -0.7536    0.0495 C.3       1 <0>         0.1901
      7 N1         -1.5801   -1.0945    1.4374 N.am      1 <0>        -0.5396
      8 C6         -1.0282   -2.1855    2.0061 C.2       1 <0>         0.5479
      9 O1         -0.2632   -2.8889    1.3713 O.2       1 <0>        -0.4677
     10 C7         -1.3461   -2.5054    3.3487 C.2       1 <0>        -0.2462
     11 C8         -2.1970   -1.7082    4.0302 C.2       1 <0>         0.1594
     12 N2         -2.7356   -0.6097    3.4156 N.am      1 <0>        -0.5478
     13 C9         -2.4212   -0.3144    2.1413 C.2       1 <0>         0.6824
     14 O2         -2.9071    0.6689    1.6166 O.2       1 <0>        -0.4940
     15 C10        -3.6587    0.2554    4.1544 C.3       1 <0>         0.1061
     16 C11        -2.8681    1.3556    4.8653 C.3       1 <0>        -0.0674
     17 H1         -2.3979    2.0019    4.1242 H         1 <0>         0.1462
     18 C12        -3.8014    2.1708    5.7229 C.2       1 <0>         0.4965
     19 O3         -4.0022    1.8489    6.8816 O.co2     1 <0>        -0.6635
     20 O4         -4.3558    3.1521    5.2579 O.co2     1 <0>        -0.6196
     21 N3         -1.8328    0.7463    5.7108 N.4       1 <0>        -0.6163
     22 Br1        -0.5899   -4.0285    4.1758 Br        1 <0>         0.0247
     23 C13        -0.1162    0.6138   -2.4754 C.2       1 <0>         0.5483
     24 O5          0.3472    1.2921   -3.3841 O.co2     1 <0>        -0.6763
     25 O6         -1.0030   -0.1985   -2.7083 O.co2     1 <0>        -0.6669
     26 H2          0.3126    0.1268    2.1188 H         1 <0>         0.0979
     27 H3          2.2832    1.7554    1.8628 H         1 <0>         0.1722
     28 H4         -2.1197   -0.2754   -0.4164 H         1 <0>         0.1197
     29 H5         -1.0061   -1.6615   -0.4986 H         1 <0>         0.1214
     30 H6         -2.4516   -1.9363    5.0547 H         1 <0>         0.1858
     31 H7         -4.3671    0.7077    3.4603 H         1 <0>         0.1472
     32 H8         -4.2004   -0.3370    4.8918 H         1 <0>         0.1238
     33 H9         -1.2079    0.2004    5.1367 H         1 <0>         0.4095
     34 H10        -1.3114    1.4718    6.1796 H         1 <0>         0.4369
     35 H11        -2.2680    0.1480    6.3969 H         1 <0>         0.4315
@<TRIPOS>BOND
     1    1    5 1
     2    1    2 2
     3    1   26 1
     4    2    3 1
     5    2   27 1
     6    3    4 1
     7    4    5 2
     8    4   23 1
     9    5    6 1
    10    6    7 1
    11    6   28 1
    12    6   29 1
    13    7   13 am
    14    7    8 am
    15    8    9 2
    16    8   10 1
    17   10   11 2
    18   10   22 1
    19   11   12 1
    20   11   30 1
    21   12   13 am
    22   12   15 1
    23   13   14 2
    24   15   16 1
    25   15   31 1
    26   15   32 1
    27   16   17 1
    28   16   18 1
    29   16   21 1
    30   18   19 2
    31   18   20 1
    32   21   33 1
    33   21   34 1
    34   21   35 1
    35   23   24 2
    36   23   25 1
@<TRIPOS>MOLECULE
CHEMBL379442
   35    36     0     0     0
SMALL
USER_CHARGES

@<TRIPOS>ATOM
      1 C1         -0.0132    1.4173    0.0518 C.2       1 <0>        -0.2575
      2 C2          1.1605    2.0827   -0.0031 C.2       1 <0>         0.1149
      3 N1          2.3344    1.3822   -0.0628 N.am      1 <0>        -0.5562
      4 C3          2.3301    0.0368   -0.0677 C.2       1 <0>         0.6831
      5 O1          3.3848   -0.5657   -0.1216 O.2       1 <0>        -0.5035
      6 N2          1.1748   -0.6516   -0.0133 N.am      1 <0>        -0.5455
      7 C4         -0.0033    0.0016    0.0465 C.2       1 <0>         0.5346
      8 O2         -1.0491   -0.6204    0.0957 O.2       1 <0>        -0.4937
      9 C5          1.1973   -2.1164   -0.0199 C.3       1 <0>         0.1871
     10 C6          1.3583   -2.6227    1.3903 C.2       1 <0>        -0.1281
     11 C7          1.3459   -1.7810    2.4741 C.2       1 <0>        -0.1582
     12 C8          1.4963   -2.3037    3.7178 C.2       1 <0>        -0.2881
     13 S1          1.6592   -3.9549    3.4544 S.3       1 <0>         0.1973
     14 C9          1.5229   -3.9725    1.6770 C.2       1 <0>        -0.1684
     15 C10         1.5719   -5.0755    0.7878 C.2       1 <0>         0.5485
     16 O3          1.5620   -4.8873   -0.4226 O.co2     1 <0>        -0.6668
     17 O4          1.6242   -6.2167    1.2298 O.co2     1 <0>        -0.6773
     18 C11         3.6078    2.1040   -0.1225 C.3       1 <0>         0.1097
     19 C12         4.1214    2.3504    1.2975 C.3       1 <0>        -0.0673
     20 H1          4.3528    1.3961    1.7709 H         1 <0>         0.1447
     21 C13         5.3661    3.1981    1.2415 C.2       1 <0>         0.4981
     22 O5          5.3370    4.3507    1.6379 O.co2     1 <0>        -0.6696
     23 O6          6.4022    2.7314    0.7999 O.co2     1 <0>        -0.6213
     24 N3          3.0895    3.0465    2.0776 N.4       1 <0>        -0.6134
     25 H2         -0.9467    1.9579    0.1037 H         1 <0>         0.1747
     26 H3          1.1725    3.1626   -0.0004 H         1 <0>         0.1764
     27 H4          0.2628   -2.4922   -0.4365 H         1 <0>         0.1160
     28 H5          2.0322   -2.4642   -0.6283 H         1 <0>         0.1206
     29 H6          1.2186   -0.7171    2.3393 H         1 <0>         0.0992
     30 H7          1.5087   -1.7780    4.6612 H         1 <0>         0.1718
     31 H8          4.3365    1.5104   -0.6745 H         1 <0>         0.1451
     32 H9          3.4608    3.0593   -0.6264 H         1 <0>         0.1169
     33 H10         2.8754    3.9298    1.6395 H         1 <0>         0.4291
     34 H11         2.2562    2.4789    2.1151 H         1 <0>         0.4104
     35 H12         3.4282    3.2089    3.0141 H         1 <0>         0.4366
@<TRIPOS>BOND
     1    1    7 1
     2    1    2 2
     3    1   25 1
     4    2    3 1
     5    2   26 1
     6    3    4 am
     7    3   18 1
     8    4    5 2
     9    4    6 am
    10    6    7 am
    11    6    9 1
    12    7    8 2
    13    9   10 1
    14    9   27 1
    15    9   28 1
    16   10   14 2
    17   10   11 1
    18   11   12 2
    19   11   29 1
    20   12   13 1
    21   12   30 1
    22   13   14 1
    23   14   15 1
    24   15   16 2
    25   15   17 1
    26   18   19 1
    27   18   31 1
    28   18   32 1
    29   19   20 1
    30   19   21 1
    31   19   24 1
    32   21   22 2
    33   21   23 1
    34   24   33 1
    35   24   34 1
    36   24   35 1
@<TRIPOS>MOLECULE
CHEMBL51660
   29    29     0     0     0
SMALL
USER_CHARGES

@<TRIPOS>ATOM
      1 C1         -0.0188    1.5386    0.0105 C.3       1 <0>        -0.1229
      2 C2          1.4814    1.9274   -0.0017 C.3       1 <0>        -0.1304
      3 C3          2.1131    0.8370    0.8989 C.3       1 <0>        -0.0828
      4 C4          1.3463   -0.4279    0.5562 C.2       1 <0>        -0.1228
      5 C5          1.7762   -1.6792    0.7142 C.2       1 <0>        -0.1823
      6 C6          0.8913   -2.8349    0.3240 C.3       1 <0>        -0.0684
      7 C7          1.2356   -3.2836   -1.0977 C.3       1 <0>        -0.0371
      8 H1          2.2999   -3.5110   -1.1592 H         1 <0>         0.1384
      9 C8          0.4381   -4.5148   -1.4428 C.2       1 <0>         0.4965
     10 O1         -0.4589   -4.4492   -2.2659 O.co2     1 <0>        -0.6897
     11 O2          0.6899   -5.5766   -0.8990 O.co2     1 <0>        -0.6339
     12 N1          0.9093   -2.2078   -2.0432 N.4       1 <0>        -0.6128
     13 C9          3.1111   -1.9318    1.2679 C.2       1 <0>         0.5129
     14 O3          3.8297   -0.9932    1.5848 O.co2     1 <0>        -0.6823
     15 O4          3.5059   -3.0809    1.4130 O.co2     1 <0>        -0.6785
     16 C10         0.0021   -0.0041    0.0020 C.3       1 <0>        -0.0971
     17 H2         -0.5034    1.9100    0.9135 H         1 <0>         0.0681
     18 H3         -0.5205    1.9197   -0.8790 H         1 <0>         0.0627
     19 H4          1.8864    1.8779   -1.0125 H         1 <0>         0.0611
     20 H5          1.6285    2.9183    0.4280 H         1 <0>         0.0646
     21 H6          3.1709    0.7161    0.6652 H         1 <0>         0.1027
     22 H7          1.9812    1.0889    1.9511 H         1 <0>         0.0706
     23 H8          1.0496   -3.6631    1.0147 H         1 <0>         0.1174
     24 H9         -0.1524   -2.5230    0.3638 H         1 <0>         0.0664
     25 H10        -0.0759   -1.9973   -1.9863 H         1 <0>         0.4224
     26 H11         1.4433   -1.3835   -1.8121 H         1 <0>         0.4142
     27 H12        -0.7992   -0.3910    0.6316 H         1 <0>         0.0769
     28 H13        -0.1137   -0.3726   -1.0172 H         1 <0>         0.0428
     29 H14         1.1364   -2.5037   -2.9808 H         1 <0>         0.4235
@<TRIPOS>BOND
     1    1   16 1
     2    1    2 1
     3    1   17 1
     4    1   18 1
     5    2    3 1
     6    2   19 1
     7    2   20 1
     8    3    4 1
     9    3   21 1
    10    3   22 1
    11    4    5 2
    12    4   16 1
    13    5    6 1
    14    5   13 1
    15    6    7 1
    16    6   23 1
    17    6   24 1
    18    7    8 1
    19    7    9 1
    20    7   12 1
    21    9   10 2
    22    9   11 1
    23   12   25 1
    24   12   26 1
    25   12   29 1
    26   13   14 2
    27   13   15 1
    28   16   27 1
    29   16   28 1
@<TRIPOS>MOLECULE
CHEMBL51054
   26    26     0     0     0
SMALL
USER_CHARGES

@<TRIPOS>ATOM
      1 C1         -0.0188    1.5342    0.0105 C.3       1 <0>        -0.1444
      2 C2          1.5182    1.4694   -0.0045 C.3       1 <0>        -0.0834
      3 C3          1.3686    0.1038   -0.6451 C.2       1 <0>        -0.1521
      4 C4          2.1150   -0.6677   -1.4345 C.2       1 <0>        -0.1612
      5 C5          1.6010   -2.0135   -1.8771 C.3       1 <0>        -0.0674
      6 C6          0.9375   -1.8799   -3.2492 C.3       1 <0>        -0.0370
      7 H1          1.6408   -1.4310   -3.9507 H         1 <0>         0.1380
      8 C7          0.5333   -3.2438   -3.7466 C.2       1 <0>         0.4952
      9 O1         -0.5715   -3.6864   -3.4821 O.co2     1 <0>        -0.6840
     10 O2          1.3110   -3.9046   -4.4136 O.co2     1 <0>        -0.6363
     11 N1         -0.2532   -1.0270   -3.1364 N.4       1 <0>        -0.6135
     12 C8          3.4371   -0.2071   -1.8727 C.2       1 <0>         0.5135
     13 O3          3.8544    0.8857   -1.5133 O.co2     1 <0>        -0.6834
     14 O4          4.1226   -0.9156   -2.5977 O.co2     1 <0>        -0.6783
     15 C9          0.0021   -0.0041    0.0020 C.3       1 <0>        -0.1096
     16 H2         -0.4297    1.9610    0.9254 H         1 <0>         0.0693
     17 H3         -0.4470    1.9708   -0.8918 H         1 <0>         0.0751
     18 H4          1.9809    2.2102   -0.6566 H         1 <0>         0.0855
     19 H5          1.9646    1.4400    0.9894 H         1 <0>         0.0843
     20 H6          2.4317   -2.7162   -1.9420 H         1 <0>         0.1153
     21 H7          0.8713   -2.3792   -1.1547 H         1 <0>         0.0703
     22 H8         -0.6908   -0.9390   -4.0413 H         1 <0>         0.4226
     23 H9         -0.9042   -1.4425   -2.4871 H         1 <0>         0.4242
     24 H10         0.0232   -0.4468    0.9978 H         1 <0>         0.0937
     25 H11        -0.7545   -0.4484   -0.6448 H         1 <0>         0.0499
     26 H12         0.0175   -0.1139   -2.8034 H         1 <0>         0.4138
@<TRIPOS>BOND
     1    1   15 1
     2    1    2 1
     3    1   16 1
     4    1   17 1
     5    2    3 1
     6    2   18 1
     7    2   19 1
     8    3    4 2
     9    3   15 1
    10    4    5 1
    11    4   12 1
    12    5    6 1
    13    5   20 1
    14    5   21 1
    15    6    7 1
    16    6    8 1
    17    6   11 1
    18    8    9 2
    19    8   10 1
    20   11   22 1
    21   11   23 1
    22   11   26 1
    23   12   13 2
    24   12   14 1
    25   15   24 1
    26   15   25 1
@<TRIPOS>MOLECULE
CHEMBL51395
   35    35     0     0     0
SMALL
USER_CHARGES

@<TRIPOS>ATOM
      1 C1          0.3927    2.0939    0.1702 C.3       1 <0>        -0.1419
      2 C2          0.0874    0.6200   -0.1040 C.3       1 <0>        -0.0454
      3 C3         -1.4349    0.4148   -0.2485 C.3       1 <0>        -0.1135
      4 C4         -1.6883   -0.9546    0.4317 C.3       1 <0>        -0.1287
      5 C5         -0.6970   -0.9216    1.6214 C.3       1 <0>        -0.0770
      6 C6          0.5353   -0.2281    1.0681 C.2       1 <0>        -0.0577
      7 C7          1.7804   -0.3446    1.5283 C.2       1 <0>        -0.2209
      8 C8          2.9269    0.2630    0.7619 C.3       1 <0>        -0.0785
      9 C9          3.5636   -0.8021   -0.1331 C.3       1 <0>        -0.0366
     10 H1          2.7976   -1.2498   -0.7664 H         1 <0>         0.1207
     11 C10         4.6210   -0.1653   -0.9976 C.2       1 <0>         0.4926
     12 O1          5.7729   -0.1000   -0.6032 O.co2     1 <0>        -0.6741
     13 O2          4.3247    0.2846   -2.0913 O.co2     1 <0>        -0.6506
     14 N1          4.1764   -1.8424    0.7038 N.4       1 <0>        -0.6020
     15 C11         2.0351   -1.0644    2.7809 C.2       1 <0>         0.5165
     16 O3          1.1041   -1.5578    3.4033 O.co2     1 <0>        -0.6691
     17 O4          3.1786   -1.1714    3.2036 O.co2     1 <0>        -0.7075
     18 C12         0.8003    0.1672   -1.3797 C.3       1 <0>        -0.1490
     19 H2          1.4432    2.2034    0.4396 H         1 <0>         0.0625
     20 H3          0.1839    2.6807   -0.7243 H         1 <0>         0.0551
     21 H4         -0.2316    2.4477    0.9908 H         1 <0>         0.0536
     22 H5         -1.9786    1.2056    0.2684 H         1 <0>         0.0645
     23 H6         -1.7182    0.3782   -1.3003 H         1 <0>         0.0633
     24 H7         -2.7166   -1.0272    0.7858 H         1 <0>         0.0625
     25 H8         -1.4521   -1.7741   -0.2471 H         1 <0>         0.0617
     26 H9         -1.1156   -0.3502    2.4499 H         1 <0>         0.0726
     27 H10        -0.4525   -1.9344    1.9414 H         1 <0>         0.0877
     28 H11         2.5579    1.0825    0.1451 H         1 <0>         0.1016
     29 H12         3.6716    0.6419    1.4619 H         1 <0>         0.0864
     30 H13         4.8053   -1.4138    1.3663 H         1 <0>         0.4372
     31 H14         3.4547   -2.3429    1.2005 H         1 <0>         0.4205
     32 H15         1.8579    0.4229   -1.3152 H         1 <0>         0.0796
     33 H16         0.6936   -0.9117   -1.4922 H         1 <0>         0.0492
     34 H17         0.3573    0.6678   -2.2407 H         1 <0>         0.0531
     35 H18         4.6901   -2.4848    0.1195 H         1 <0>         0.4118
@<TRIPOS>BOND
     1    1    2 1
     2    1   19 1
     3    1   20 1
     4    1   21 1
     5    2    6 1
     6    2    3 1
     7    2   18 1
     8    3    4 1
     9    3   22 1
    10    3   23 1
    11    4    5 1
    12    4   24 1
    13    4   25 1
    14    5    6 1
    15    5   26 1
    16    5   27 1
    17    6    7 2
    18    7    8 1
    19    7   15 1
    20    8    9 1
    21    8   28 1
    22    8   29 1
    23    9   10 1
    24    9   11 1
    25    9   14 1
    26   11   12 2
    27   11   13 1
    28   14   30 1
    29   14   31 1
    30   14   35 1
    31   15   16 2
    32   15   17 1
    33   18   32 1
    34   18   33 1
    35   18   34 1
@<TRIPOS>MOLECULE
CHEMBL277059
   43    46     0     0     0
SMALL
USER_CHARGES

@<TRIPOS>ATOM
      1 C1         -0.1141    1.4956   -0.0009 C.3       1 <0>        -0.1509
      2 C2         -0.0869   -0.0341   -0.0114 C.3       1 <0>         0.0595
      3 O1          0.5912   -0.4904   -1.1836 O.3       1 <0>        -0.3320
      4 C3          0.7027   -1.8234   -1.3459 C.2       1 <0>         0.5669
      5 O2          0.2369   -2.5777   -0.5150 O.2       1 <0>        -0.5209
      6 C4          1.3901   -2.3669   -2.5322 C.2       1 <0>        -0.0434
      7 C5          1.5702   -3.7029   -2.8253 C.2       1 <0>        -0.0088
      8 N1          2.2435   -3.7623   -3.9942 N.pl3     1 <0>        -0.2946
      9 C6          2.6959   -4.8014   -4.7640 C.2       1 <0>        -0.1672
     10 C7          3.3618   -4.5709   -5.9235 C.2       1 <0>         0.2194
     11 N2          3.5957   -3.3090   -6.3480 N.2       1 <0>        -0.6045
     12 C8          3.1925   -2.2654   -5.6629 C.2       1 <0>         0.5077
     13 C9          2.4701   -2.4717   -4.4071 C.2       1 <0>         0.1439
     14 N3          1.9473   -1.6478   -3.5228 N.2       1 <0>        -0.4039
     15 O3          3.4411   -1.0116   -6.1132 O.3       1 <0>        -0.6314
     16 C10         3.7366   -5.8637   -6.5546 C.ar      1 <0>        -0.0452
     17 C11         4.4214   -6.1436   -7.7392 C.ar      1 <0>        -0.0563
     18 C12         4.6472   -7.4510   -8.1113 C.ar      1 <0>        -0.1497
     19 C13         4.1956   -8.4942   -7.3115 C.ar      1 <0>         0.1602
     20 C14         3.5134   -8.2193   -6.1315 C.ar      1 <0>        -0.1020
     21 C15         3.2870   -6.9139   -5.7583 C.ar      1 <0>        -0.0627
     22 C16         2.5961   -6.2967   -4.5681 C.3       1 <0>         0.0006
     23 N4          4.4267   -9.8196   -7.6936 N.am      1 <0>        -0.6823
     24 C17         4.6701  -10.7582   -6.7575 C.2       1 <0>         0.6998
     25 O4          4.6059  -10.4711   -5.5778 O.2       1 <0>        -0.5680
     26 N5          4.9846  -12.0150   -7.1291 N.am      1 <0>        -0.7485
     27 C18         5.2491  -13.0352   -6.1116 C.3       1 <0>         0.1061
     28 H1          0.9069    1.8771   -0.0017 H         1 <0>         0.0672
     29 H2         -0.6373    1.8558   -0.8867 H         1 <0>         0.0672
     30 H3         -0.6314    1.8436    0.8932 H         1 <0>         0.0752
     31 H4          0.4362   -0.3943    0.8744 H         1 <0>         0.0647
     32 H5         -1.1080   -0.4157   -0.0106 H         1 <0>         0.0646
     33 H6          1.2362   -4.5417   -2.2326 H         1 <0>         0.1864
     34 H7          4.7736   -5.3357   -8.3634 H         1 <0>         0.1360
     35 H8          5.1766   -7.6659   -9.0278 H         1 <0>         0.1271
     36 H9          3.1615   -9.0286   -5.5090 H         1 <0>         0.1415
     37 H10         3.0998   -6.5898   -3.6470 H         1 <0>         0.0898
     38 H11         1.5504   -6.6033   -4.5396 H         1 <0>         0.0886
     39 H12         4.4119  -10.0634   -8.6324 H         1 <0>         0.4061
     40 H13         5.0358  -12.2440   -8.0703 H         1 <0>         0.3982
     41 H14         6.0928  -12.7238   -5.4956 H         1 <0>         0.0599
     42 H15         4.3669  -13.1593   -5.4835 H         1 <0>         0.0598
     43 H16         5.4845  -13.9816   -6.5985 H         1 <0>         0.0757
@<TRIPOS>BOND
     1    1    2 1
     2    1   28 1
     3    1   29 1
     4    1   30 1
     5    2    3 1
     6    2   31 1
     7    2   32 1
     8    3    4 1
     9    4    5 2
    10    4    6 1
    11    6   14 1
    12    6    7 2
    13    7    8 1
    14    7   33 1
    15    8   13 1
    16    8    9 1
    17    9   22 1
    18    9   10 2
    19   10   11 1
    20   10   16 1
    21   11   12 2
    22   12   13 1
    23   12   15 1
    24   13   14 2
    25   16   21 ar
    26   16   17 ar
    27   17   18 ar
    28   17   34 1
    29   18   19 ar
    30   18   35 1
    31   19   20 ar
    32   19   23 1
    33   20   21 ar
    34   20   36 1
    35   21   22 1
    36   22   37 1
    37   22   38 1
    38   23   24 am
    39   23   39 1
    40   24   25 2
    41   24   26 am
    42   26   27 1
    43   26   40 1
    44   27   41 1
    45   27   42 1
    46   27   43 1
@<TRIPOS>MOLECULE
CHEMBL277059__1
   44    47     0     0     0
SMALL
USER_CHARGES

@<TRIPOS>ATOM
      1 C1          0.0401    1.4982   -0.0682 C.3       1 <0>        -0.1528
      2 C2          0.0594   -0.0317   -0.0699 C.3       1 <0>         0.0598
      3 O1          0.7427   -0.5008    1.0942 O.3       1 <0>        -0.3307
      4 C3          0.8482   -1.8356    1.2454 C.2       1 <0>         0.5608
      5 O2          0.3731   -2.5810    0.4116 O.2       1 <0>        -0.5008
      6 C4          1.5402   -2.3918    2.4225 C.2       1 <0>        -0.0246
      7 C5          1.7258   -3.7333    2.7000 C.2       1 <0>         0.0647
      8 N1          2.4013   -3.8023    3.8644 N.pl3     1 <0>        -0.3388
      9 C6          2.8565   -4.8698    4.6176 C.2       1 <0>        -0.0170
     10 C7          3.5193   -4.6808    5.7694 C.2       1 <0>         0.1743
     11 N2          3.7692   -3.3919    6.2428 N.am      1 <0>        -0.6290
     12 C8          3.3503   -2.3123    5.5543 C.2       1 <0>         0.6050
     13 C9          2.6236   -2.5171    4.2891 C.2       1 <0>         0.1403
     14 N3          2.1079   -1.6856    3.4136 N.2       1 <0>        -0.3582
     15 O3          3.5687   -1.1891    5.9693 O.2       1 <0>        -0.4745
     16 C10         3.8886   -5.9859    6.3670 C.ar      1 <0>        -0.0882
     17 C11         4.5747   -6.2997    7.5443 C.ar      1 <0>        -0.0583
     18 C12         4.7935   -7.6172    7.8819 C.ar      1 <0>        -0.1419
     19 C13         4.3351   -8.6375    7.0563 C.ar      1 <0>         0.1911
     20 C14         3.6522   -8.3298    5.8844 C.ar      1 <0>        -0.0973
     21 C15         3.4319   -7.0153    5.5450 C.ar      1 <0>        -0.0465
     22 C16         2.7433   -6.3589    4.3750 C.3       1 <0>        -0.0218
     23 N4          4.5611   -9.9731    7.4040 N.am      1 <0>        -0.6858
     24 C17         3.6364  -10.9103    7.1155 C.2       1 <0>         0.7018
     25 O4          2.6446  -10.6102    6.4794 O.2       1 <0>        -0.5675
     26 N5          3.8110  -12.1800    7.5322 N.am      1 <0>        -0.7427
     27 C18         2.8059  -13.1987    7.2187 C.3       1 <0>         0.1031
     28 H1          1.0632    1.8744   -0.0711 H         1 <0>         0.0682
     29 H2         -0.4811    1.8559   -0.9562 H         1 <0>         0.0810
     30 H3         -0.4754    1.8541    0.8238 H         1 <0>         0.0683
     31 H4         -0.9636   -0.4079   -0.0670 H         1 <0>         0.0703
     32 H5          0.5749   -0.3876   -0.9619 H         1 <0>         0.0703
     33 H6          1.3928   -4.5665    2.0990 H         1 <0>         0.2100
     34 H7          4.9331   -5.5100    8.1880 H         1 <0>         0.1340
     35 H8          5.3235   -7.8584    8.7914 H         1 <0>         0.1375
     36 H9          3.2953   -9.1215    5.2423 H         1 <0>         0.1529
     37 H10         1.6952   -6.6561    4.3398 H         1 <0>         0.1191
     38 H11         3.2432   -6.6279    3.4445 H         1 <0>         0.1180
     39 H12         5.3833  -10.2251    7.8527 H         1 <0>         0.4117
     40 H13         4.6023  -12.4194    8.0397 H         1 <0>         0.4011
     41 H14         1.8481  -12.9091    7.6509 H         1 <0>         0.0625
     42 H15         2.7043  -13.2881    6.1372 H         1 <0>         0.0627
     43 H16         3.1175  -14.1567    7.6348 H         1 <0>         0.0803
     44 H17         4.2495   -3.2721    7.0769 H         1 <0>         0.4274
@<TRIPOS>BOND
     1    1    2 1
     2    1   28 1
     3    1   29 1
     4    1   30 1
     5    2    3 1
     6    2   31 1
     7    2   32 1
     8    3    4 1
     9    4    5 2
    10    4    6 1
    11    6   14 1
    12    6    7 2
    13    7    8 1
    14    7   33 1
    15    8   13 1
    16    8    9 1
    17    9   22 1
    18    9   10 2
    19   10   11 1
    20   10   16 1
    21   11   12 am
    22   11   44 1
    23   12   13 1
    24   12   15 2
    25   13   14 2
    26   16   21 ar
    27   16   17 ar
    28   17   18 ar
    29   17   34 1
    30   18   19 ar
    31   18   35 1
    32   19   20 ar
    33   19   23 1
    34   20   21 ar
    35   20   36 1
    36   21   22 1
    37   22   37 1
    38   22   38 1
    39   23   24 am
    40   23   39 1
    41   24   25 2
    42   24   26 am
    43   26   27 1
    44   26   40 1
    45   27   41 1
    46   27   42 1
    47   27   43 1
@<TRIPOS>MOLECULE
CHEMBL122313
   41    43     0     0     0
SMALL
USER_CHARGES

@<TRIPOS>ATOM
      1 C1          1.3260   -2.6037   -0.0970 C.3       1 <0>        -0.1452
      2 C2          0.6149   -2.0163   -1.3177 C.3       1 <0>        -0.1176
      3 C3          0.6001   -0.4899   -1.2139 C.3       1 <0>         0.0782
      4 C4         -0.1828    0.0938   -2.3916 C.3       1 <0>        -0.1927
      5 N1          1.9789    0.0162   -1.2435 N.3       1 <0>        -0.5188
      6 C5          2.0182    1.4571   -0.9466 C.3       1 <0>         0.0452
      7 C6          3.4621    1.8485   -0.6316 C.3       1 <0>        -0.0909
      8 C7          4.3815    1.3387   -1.7123 C.ar      1 <0>         0.0166
      9 C8          5.6568    1.8825   -1.8051 C.ar      1 <0>        -0.0426
     10 C9          6.5367    1.4484   -2.7723 C.ar      1 <0>        -0.0514
     11 C10         6.1490    0.4561   -3.6659 C.ar      1 <0>         0.1166
     12 C11         4.8693   -0.0896   -3.5756 C.ar      1 <0>         0.1784
     13 C12         3.9853    0.3588   -2.5935 C.ar      1 <0>        -0.0819
     14 C13         2.6092   -0.2514   -2.5400 C.3       1 <0>         0.0822
     15 N2          4.4583   -1.0836   -4.4597 N.am      1 <0>        -0.6341
     16 C14         5.3004   -1.5281   -5.4146 C.2       1 <0>         0.5116
     17 C15         6.6696   -0.9444   -5.5108 C.2       1 <0>         0.5117
     18 N3          7.0403    0.0175   -4.6411 N.am      1 <0>        -0.6305
     19 O1          7.4430   -1.3315   -6.3636 O.2       1 <0>        -0.4513
     20 O2          4.9476   -2.3954   -6.1884 O.2       1 <0>        -0.4467
     21 N4          6.0740    2.9389   -0.8558 N.pl3     1 <0>         0.0395
     22 O3          7.1822    3.4161   -0.9312 O.2       1 <0>        -0.1579
     23 O4          5.3064    3.3244   -0.0050 O.3       1 <0>        -0.1480
     24 H1          2.3753   -2.3090   -0.1110 H         1 <0>         0.0627
     25 H2          0.8557   -2.2295    0.8124 H         1 <0>         0.0536
     26 H3          1.2536   -3.6910   -0.1226 H         1 <0>         0.0486
     27 H4          1.1429   -2.3138   -2.2237 H         1 <0>         0.0591
     28 H5         -0.4091   -2.3879   -1.3554 H         1 <0>         0.0691
     29 H6          0.1244   -0.1939   -0.2789 H         1 <0>         0.0933
     30 H7          0.2929   -0.2022   -3.3266 H         1 <0>         0.0585
     31 H8         -1.2059   -0.2818   -2.3697 H         1 <0>         0.0683
     32 H9         -0.1934    1.1813   -2.3177 H         1 <0>         0.0596
     33 H10         1.6669    2.0190   -1.8120 H         1 <0>         0.0466
     34 H11         1.3847    1.6710   -0.0857 H         1 <0>         0.0939
     35 H12         3.5383    2.9343   -0.5743 H         1 <0>         0.1175
     36 H13         3.7538    1.4158    0.3254 H         1 <0>         0.1071
     37 H14         7.5254    1.8782   -2.8366 H         1 <0>         0.1706
     38 H15         2.6876   -1.3287   -2.6863 H         1 <0>         0.0956
     39 H16         1.9952    0.1750   -3.3333 H         1 <0>         0.0694
     40 H17         7.9282    0.4042   -4.6955 H         1 <0>         0.4296
     41 H18         3.5658   -1.4568   -4.3886 H         1 <0>         0.4263
@<TRIPOS>BOND
     1    1    2 1
     2    1   24 1
     3    1   25 1
     4    1   26 1
     5    2    3 1
     6    2   27 1
     7    2   28 1
     8    3    4 1
     9    3    5 1
    10    3   29 1
    11    4   30 1
    12    4   31 1
    13    4   32 1
    14    5   14 1
    15    5    6 1
    16    6    7 1
    17    6   33 1
    18    6   34 1
    19    7    8 1
    20    7   35 1
    21    7   36 1
    22    8   13 ar
    23    8    9 ar
    24    9   10 ar
    25    9   21 1
    26   10   11 ar
    27   10   37 1
    28   11   18 1
    29   11   12 ar
    30   12   13 ar
    31   12   15 1
    32   13   14 1
    33   14   38 1
    34   14   39 1
    35   15   16 am
    36   15   41 1
    37   16   17 1
    38   16   20 2
    39   17   18 am
    40   17   19 2
    41   18   40 1
    42   21   22 2
    43   21   23 1
@<TRIPOS>MOLECULE
CHEMBL122313__1
   41    43     0     0     0
SMALL
USER_CHARGES

@<TRIPOS>ATOM
      1 C1         -0.0187    1.5258    0.0104 C.3       1 <0>        -0.1468
      2 C2          0.0021   -0.0041    0.0020 C.3       1 <0>        -0.1176
      3 C3          0.7182   -0.4975   -1.2568 C.3       1 <0>         0.0779
      4 C4          0.8493   -2.0210   -1.2049 C.3       1 <0>        -0.1921
      5 N1         -0.0570   -0.1128   -2.4438 N.3       1 <0>        -0.5189
      6 C5         -1.3880   -0.7406   -2.4306 C.3       1 <0>         0.0389
      7 C6         -2.2670   -0.0366   -3.4646 C.3       1 <0>        -0.0908
      8 C7         -1.5483    0.0357   -4.7880 C.ar      1 <0>         0.0171
      9 C8         -2.2928    0.3059   -5.9297 C.ar      1 <0>        -0.0429
     10 C9         -1.6832    0.3866   -7.1627 C.ar      1 <0>        -0.0511
     11 C10        -0.3099    0.1971   -7.2699 C.ar      1 <0>         0.1164
     12 C11         0.4385   -0.0759   -6.1258 C.ar      1 <0>         0.1789
     13 C12        -0.1891   -0.1574   -4.8822 C.ar      1 <0>        -0.0821
     14 C13         0.6573   -0.4651   -3.6748 C.3       1 <0>         0.0868
     15 N2          1.8148   -0.2701   -6.2084 N.am      1 <0>        -0.6341
     16 C14         2.4368   -0.1947   -7.4026 C.2       1 <0>         0.5117
     17 C15         1.6358    0.0977   -8.6264 C.2       1 <0>         0.5116
     18 N3          0.3042    0.2810   -8.5164 N.am      1 <0>        -0.6305
     19 O1          2.1774    0.1701   -9.7112 O.2       1 <0>        -0.4514
     20 O2          3.6372   -0.3628   -7.4808 O.2       1 <0>        -0.4467
     21 N4         -3.7550    0.5087   -5.8204 N.pl3     1 <0>         0.0396
     22 O3         -4.4083    0.7441   -6.8100 O.2       1 <0>        -0.1580
     23 O4         -4.2959    0.4388   -4.7414 O.3       1 <0>        -0.1480
     24 H1          1.0039    1.9031    0.0027 H         1 <0>         0.0503
     25 H2         -0.5459    1.8868   -0.8726 H         1 <0>         0.0656
     26 H3         -0.5289    1.8773    0.9072 H         1 <0>         0.0500
     27 H4          0.5293   -0.3651    0.8851 H         1 <0>         0.0683
     28 H5         -1.0205   -0.3814    0.0098 H         1 <0>         0.0671
     29 H6          1.7103   -0.0491   -1.3098 H         1 <0>         0.0879
     30 H7         -0.1428   -2.4694   -1.1520 H         1 <0>         0.0617
     31 H8          1.3594   -2.3725   -2.1017 H         1 <0>         0.0561
     32 H9          1.4245   -2.3064   -0.3242 H         1 <0>         0.0676
     33 H10        -1.2974   -1.7965   -2.6852 H         1 <0>         0.0469
     34 H11        -1.8322   -0.6364   -1.4407 H         1 <0>         0.0988
     35 H12        -3.1966   -0.5922   -3.5876 H         1 <0>         0.1172
     36 H13        -2.4932    0.9725   -3.1202 H         1 <0>         0.1066
     37 H14        -2.2710    0.5961   -8.0442 H         1 <0>         0.1706
     38 H15         1.5834    0.1071   -3.7296 H         1 <0>         0.0940
     39 H16         0.8929   -1.5293   -3.6620 H         1 <0>         0.0672
     40 H17        -0.2259    0.4709   -9.3062 H         1 <0>         0.4296
     41 H18         2.3266   -0.4596   -5.4065 H         1 <0>         0.4267
@<TRIPOS>BOND
     1    1    2 1
     2    1   24 1
     3    1   25 1
     4    1   26 1
     5    2    3 1
     6    2   27 1
     7    2   28 1
     8    3    4 1
     9    3    5 1
    10    3   29 1
    11    4   30 1
    12    4   31 1
    13    4   32 1
    14    5   14 1
    15    5    6 1
    16    6    7 1
    17    6   33 1
    18    6   34 1
    19    7    8 1
    20    7   35 1
    21    7   36 1
    22    8   13 ar
    23    8    9 ar
    24    9   10 ar
    25    9   21 1
    26   10   11 ar
    27   10   37 1
    28   11   18 1
    29   11   12 ar
    30   12   13 ar
    31   12   15 1
    32   13   14 1
    33   14   38 1
    34   14   39 1
    35   15   16 am
    36   15   41 1
    37   16   17 1
    38   16   20 2
    39   17   18 am
    40   17   19 2
    41   18   40 1
    42   21   22 2
    43   21   23 1
@<TRIPOS>MOLECULE
CHEMBL449296
   23    23     0     0     0
SMALL
USER_CHARGES

@<TRIPOS>ATOM
      1 C1         -0.0165    1.3649    0.0095 C.2       1 <0>         0.2065
      2 C2          1.1477    2.0493    0.0021 C.2       1 <0>        -0.2667
      3 C3          2.3687    1.3316   -0.0134 C.2       1 <0>         0.5565
      4 O1          3.4313    1.9266   -0.0200 O.2       1 <0>        -0.4714
      5 N1          2.3437   -0.0165   -0.0204 N.am      1 <0>        -0.6490
      6 H1          3.1758   -0.5149   -0.0310 H         1 <0>         0.4412
      7 C4          1.1690   -0.6735   -0.0123 C.2       1 <0>         0.6841
      8 O2          1.1624   -1.8893   -0.0183 O.2       1 <0>        -0.5332
      9 N2          0.0021   -0.0041    0.0020 N.am      1 <0>        -0.5446
     10 C5         -1.2606   -0.7470    0.0101 C.3       1 <0>         0.1029
     11 C6         -1.7139   -0.9978   -1.4295 C.3       1 <0>        -0.0670
     12 C7         -2.9456   -1.8662   -1.4242 C.2       1 <0>         0.4957
     13 O3         -4.0058   -1.4178   -1.0226 O.co2     1 <0>        -0.6250
     14 O4         -2.8818   -3.0170   -1.8216 O.co2     1 <0>        -0.6558
     15 N3         -0.6408   -1.6747   -2.1699 N.4       1 <0>        -0.6110
     16 Br1         1.1477    3.9403    0.0116 Br        1 <0>         0.0361
     17 H2         -0.9574    1.8948    0.0259 H         1 <0>         0.1979
     18 H3         -1.1176   -1.7010    0.5175 H         1 <0>         0.1309
     19 H4         -2.0201   -0.1669    0.5343 H         1 <0>         0.1486
     20 H5         -1.9423   -0.0463   -1.9096 H         1 <0>         0.1427
     21 H6         -0.4294   -2.5556   -1.7255 H         1 <0>         0.4410
     22 H7         -0.9397   -1.8402   -3.1193 H         1 <0>         0.4366
     23 H8          0.1839   -1.0933   -2.1735 H         1 <0>         0.4032
@<TRIPOS>BOND
     1    1    9 1
     2    1    2 2
     3    1   17 1
     4    2    3 1
     5    2   16 1
     6    3    4 2
     7    3    5 am
     8    5    6 1
     9    5    7 am
    10    7    8 2
    11    7    9 am
    12    9   10 1
    13   10   11 1
    14   10   18 1
    15   10   19 1
    16   11   12 1
    17   11   15 1
    18   11   20 1
    19   12   13 2
    20   12   14 1
    21   15   21 1
    22   15   22 1
    23   15   23 1
@<TRIPOS>MOLECULE
CHEMBL449296__1
   22    22     0     0     0
SMALL
USER_CHARGES

@<TRIPOS>ATOM
      1 C1         -0.0164    1.3580    0.0095 C.2       1 <0>         0.1604
      2 C2          1.1575    2.0364    0.0019 C.2       1 <0>        -0.2386
      3 C3          2.3645    1.3115   -0.0135 C.2       1 <0>         0.4807
      4 O1          3.5484    1.9636   -0.0208 O.3       1 <0>        -0.6324
      5 N1          2.3339   -0.0124   -0.0203 N.2       1 <0>        -0.6329
      6 C4          1.1731   -0.6670   -0.0127 C.2       1 <0>         0.6279
      7 O2          1.1721   -1.8868   -0.0189 O.2       1 <0>        -0.6004
      8 N2          0.0021   -0.0041    0.0020 N.am      1 <0>        -0.5606
      9 C5         -1.2584   -0.7505    0.0105 C.3       1 <0>         0.0960
     10 C6         -1.7116   -1.0027   -1.4289 C.3       1 <0>        -0.0582
     11 C7         -2.9408   -1.8745   -1.4232 C.2       1 <0>         0.4958
     12 O3         -4.0483   -1.3665   -1.3795 O.co2     1 <0>        -0.6416
     13 O4         -2.8278   -3.0878   -1.4622 O.co2     1 <0>        -0.6615
     14 N3         -0.6368   -1.6765   -2.1697 N.4       1 <0>        -0.6078
     15 Br1         1.1736    3.9273    0.0113 Br        1 <0>        -0.0378
     16 H1         -0.9554    1.8913    0.0258 H         1 <0>         0.1633
     17 H2         -1.1125   -1.7042    0.5178 H         1 <0>         0.1190
     18 H3         -2.0194   -0.1727    0.5351 H         1 <0>         0.1188
     19 H4         -1.9428   -0.0517   -1.9089 H         1 <0>         0.1305
     20 H5         -0.4227   -2.5568   -1.7254 H         1 <0>         0.4415
     21 H6         -0.9356   -1.8428   -3.1190 H         1 <0>         0.4228
     22 H7          0.1862   -1.0928   -2.1735 H         1 <0>         0.4150
@<TRIPOS>BOND
     1    1    8 1
     2    1    2 2
     3    1   16 1
     4    2    3 1
     5    2   15 1
     6    3    4 1
     7    3    5 2
     8    5    6 1
     9    6    7 2
    10    6    8 am
    11    8    9 1
    12    9   10 1
    13    9   17 1
    14    9   18 1
    15   10   11 1
    16   10   14 1
    17   10   19 1
    18   11   12 2
    19   11   13 1
    20   14   20 1
    21   14   21 1
    22   14   22 1
@<TRIPOS>MOLECULE
CHEMBL449296__2
   23    23     0     0     0
SMALL
USER_CHARGES

@<TRIPOS>ATOM
      1 C1         -0.0165    1.3649    0.0095 C.2       1 <0>         0.1684
      2 C2          1.1477    2.0493    0.0021 C.2       1 <0>        -0.2534
      3 C3          2.3687    1.3316   -0.0134 C.2       1 <0>         0.5560
      4 O1          3.4313    1.9266   -0.0200 O.2       1 <0>        -0.4734
      5 N1          2.3437   -0.0165   -0.0204 N.am      1 <0>        -0.6500
      6 H1          3.1758   -0.5149   -0.0310 H         1 <0>         0.4414
      7 C4          1.1690   -0.6735   -0.0123 C.2       1 <0>         0.6909
      8 O2          1.1624   -1.8893   -0.0183 O.2       1 <0>        -0.5043
      9 N2          0.0021   -0.0041    0.0020 N.am      1 <0>        -0.5448
     10 C5         -1.2606   -0.7470    0.0101 C.3       1 <0>         0.1034
     11 C6         -1.7139   -0.9978   -1.4295 C.3       1 <0>        -0.0670
     12 C7         -3.0712   -1.6527   -1.4219 C.2       1 <0>         0.4935
     13 O3         -4.0790   -0.9669   -1.4400 O.co2     1 <0>        -0.6571
     14 O4         -3.1613   -2.8683   -1.3976 O.co2     1 <0>        -0.6184
     15 N3         -1.7912    0.2809   -2.1484 N.4       1 <0>        -0.6170
     16 Br1         1.1477    3.9403    0.0116 Br        1 <0>         0.0370
     17 H2         -0.9574    1.8948    0.0259 H         1 <0>         0.1912
     18 H3         -1.1176   -1.7010    0.5175 H         1 <0>         0.1490
     19 H4         -2.0201   -0.1669    0.5343 H         1 <0>         0.1284
     20 H5         -0.9978   -1.6517   -1.9272 H         1 <0>         0.1452
     21 H6         -2.4541    0.8862   -1.6877 H         1 <0>         0.4339
     22 H7         -0.8825    0.7194   -2.1535 H         1 <0>         0.4075
     23 H8         -2.0902    0.1155   -3.0978 H         1 <0>         0.4395
@<TRIPOS>BOND
     1    1    9 1
     2    1    2 2
     3    1   17 1
     4    2    3 1
     5    2   16 1
     6    3    4 2
     7    3    5 am
     8    5    6 1
     9    5    7 am
    10    7    8 2
    11    7    9 am
    12    9   10 1
    13   10   11 1
    14   10   18 1
    15   10   19 1
    16   11   12 1
    17   11   15 1
    18   11   20 1
    19   12   13 2
    20   12   14 1
    21   15   21 1
    22   15   22 1
    23   15   23 1
@<TRIPOS>MOLECULE
CHEMBL449296__3
   22    22     0     0     0
SMALL
USER_CHARGES

@<TRIPOS>ATOM
      1 C1         -0.0164    1.3580    0.0095 C.2       1 <0>         0.1195
      2 C2          1.1575    2.0364    0.0019 C.2       1 <0>        -0.2212
      3 C3          2.3645    1.3115   -0.0135 C.2       1 <0>         0.4752
      4 O1          3.5484    1.9636   -0.0208 O.3       1 <0>        -0.6378
      5 N1          2.3339   -0.0124   -0.0203 N.2       1 <0>        -0.6298
      6 C4          1.1731   -0.6670   -0.0127 C.2       1 <0>         0.6374
      7 O2          1.1721   -1.8868   -0.0189 O.2       1 <0>        -0.5740
      8 N2          0.0021   -0.0041    0.0020 N.am      1 <0>        -0.5587
      9 C5         -1.2584   -0.7505    0.0105 C.3       1 <0>         0.1012
     10 C6         -1.7116   -1.0027   -1.4289 C.3       1 <0>        -0.0616
     11 C7         -3.0670   -1.6614   -1.4208 C.2       1 <0>         0.4990
     12 O3         -4.0476   -1.0430   -1.7983 O.co2     1 <0>        -0.6758
     13 O4         -3.1829   -2.8127   -1.0367 O.co2     1 <0>        -0.6289
     14 N3         -1.7928    0.2758   -2.1478 N.4       1 <0>        -0.6129
     15 Br1         1.1736    3.9273    0.0113 Br        1 <0>        -0.0379
     16 H1         -0.9554    1.8913    0.0258 H         1 <0>         0.1560
     17 H2         -1.1125   -1.7042    0.5178 H         1 <0>         0.1375
     18 H3         -2.0194   -0.1727    0.5351 H         1 <0>         0.0981
     19 H4         -0.9938   -1.6545   -1.9269 H         1 <0>         0.1420
     20 H5         -2.4573    0.8792   -1.6868 H         1 <0>         0.4269
     21 H6         -0.8853    0.7169   -2.1532 H         1 <0>         0.4140
     22 H7         -2.0917    0.1096   -3.0970 H         1 <0>         0.4317
@<TRIPOS>BOND
     1    1    8 1
     2    1    2 2
     3    1   16 1
     4    2    3 1
     5    2   15 1
     6    3    4 1
     7    3    5 2
     8    5    6 1
     9    6    7 2
    10    6    8 am
    11    8    9 1
    12    9   10 1
    13    9   17 1
    14    9   18 1
    15   10   11 1
    16   10   14 1
    17   10   19 1
    18   11   12 2
    19   11   13 1
    20   14   20 1
    21   14   21 1
    22   14   22 1
@<TRIPOS>MOLECULE
CHEMBL13076
   55    58     0     0     0
SMALL
USER_CHARGES

@<TRIPOS>ATOM
      1 C1          1.1831   -0.7045   -0.5970 C.ar      1 <0>        -0.1245
      2 C2          2.3878   -0.0292   -0.5867 C.ar      1 <0>        -0.0308
      3 C3          2.5252    1.1314    0.1525 C.ar      1 <0>        -0.0765
      4 C4          1.4577    1.6194    0.8836 C.ar      1 <0>        -0.0296
      5 C5          0.2505    0.9485    0.8778 C.ar      1 <0>        -0.1524
      6 C6          0.1092   -0.2170    0.1361 C.ar      1 <0>         0.2319
      7 N1         -1.1130   -0.8987    0.1274 N.am      1 <0>        -0.6865
      8 C7         -1.1343   -2.2426    0.0274 C.2       1 <0>         0.7030
      9 O1         -0.0928   -2.8699    0.0421 O.2       1 <0>        -0.5702
     10 N2         -2.3100   -2.8912   -0.0889 N.am      1 <0>        -0.7274
     11 C8         -2.3331   -4.3519   -0.1976 C.3       1 <0>         0.2156
     12 C9         -3.7593   -4.8243   -0.3155 C.2       1 <0>        -0.1897
     13 C10        -4.6163   -5.1630    0.7508 C.2       1 <0>        -0.1712
     14 C11        -5.7984   -5.5336    0.2180 C.2       1 <0>         0.0021
     15 N3         -5.7032   -5.4362   -1.1407 N.pl3     1 <0>        -0.4065
     16 C12        -4.4512   -4.9948   -1.4606 C.2       1 <0>         0.0196
     17 C13        -6.7235   -5.7349   -2.0555 C.ar      1 <0>         0.1823
     18 C14        -7.9411   -5.0788   -1.9722 C.ar      1 <0>        -0.1150
     19 C15        -8.9523   -5.3738   -2.8782 C.ar      1 <0>         0.2048
     20 C16        -8.7366   -6.3326   -3.8708 C.ar      1 <0>         0.1123
     21 C17        -7.5114   -6.9862   -3.9464 C.ar      1 <0>        -0.0569
     22 C18        -6.5096   -6.6847   -3.0480 C.ar      1 <0>        -0.1916
     23 C19        -5.1814   -7.3911   -3.1385 C.3       1 <0>         0.5180
     24 F1         -5.2538   -8.3981   -4.1069 F         1 <0>        -0.1751
     25 F2         -4.1880   -6.4725   -3.4942 F         1 <0>        -0.1719
     26 F3         -4.8695   -7.9583   -1.8983 F         1 <0>        -0.1670
     27 N4         -9.7393   -6.6409   -4.7869 N.am      1 <0>        -0.6314
     28 H1         -9.5803   -7.3086   -5.4723 H         1 <0>         0.4220
     29 C20       -10.9307   -6.0129   -4.7222 C.2       1 <0>         0.5167
     30 O2        -11.8083   -6.2788   -5.5189 O.2       1 <0>        -0.4697
     31 C21       -11.1604   -4.9890   -3.6627 C.2       1 <0>         0.5080
     32 O3        -12.2268   -4.4123   -3.5879 O.2       1 <0>        -0.4539
     33 N5        -10.1728   -4.7104   -2.7880 N.am      1 <0>        -0.4918
     34 C22       -10.3844   -3.7075   -1.7412 C.3       1 <0>         0.0198
     35 C23        -9.9714   -2.3518   -2.2536 C.2       1 <0>         0.4874
     36 O4         -9.5402   -2.2342   -3.3880 O.co2     1 <0>        -0.6765
     37 O5        -10.0684   -1.3726   -1.5337 O.co2     1 <0>        -0.6815
     38 N6          3.8179    1.8524    0.1617 N.pl3     1 <0>         0.0397
     39 O6          4.7521    1.4266   -0.4767 O.2       1 <0>        -0.1652
     40 O7          3.9394    2.8672    0.8075 O.3       1 <0>        -0.1668
     41 H2          1.0750   -1.6085   -1.1781 H         1 <0>         0.1603
     42 H3          3.2235   -0.4080   -1.1564 H         1 <0>         0.1556
     43 H4          1.5682    2.5261    1.4599 H         1 <0>         0.1564
     44 H5         -0.5826    1.3298    1.4495 H         1 <0>         0.1509
     45 H6         -1.9447   -0.4041    0.1934 H         1 <0>         0.4162
     46 H7         -3.1408   -2.3907   -0.1006 H         1 <0>         0.4040
     47 H8         -1.7743   -4.6594   -1.0815 H         1 <0>         0.0741
     48 H9         -1.8777   -4.7897    0.6907 H         1 <0>         0.0771
     49 H10        -4.3710   -5.1318    1.8021 H         1 <0>         0.1426
     50 H11        -6.6698   -5.8527    0.7705 H         1 <0>         0.1678
     51 H12        -4.0784   -4.8159   -2.4583 H         1 <0>         0.1761
     52 H13        -8.1043   -4.3386   -1.2028 H         1 <0>         0.1600
     53 H14        -7.3429   -7.7284   -4.7127 H         1 <0>         0.1595
     54 H15       -11.4389   -3.6862   -1.4663 H         1 <0>         0.1030
     55 H16        -9.7860   -3.9632   -0.8668 H         1 <0>         0.0929
@<TRIPOS>BOND
     1    1    6 ar
     2    1    2 ar
     3    1   41 1
     4    2    3 ar
     5    2   42 1
     6    3    4 ar
     7    3   38 1
     8    4    5 ar
     9    4   43 1
    10    5    6 ar
    11    5   44 1
    12    6    7 1
    13    7    8 am
    14    7   45 1
    15    8    9 2
    16    8   10 am
    17   10   11 1
    18   10   46 1
    19   11   12 1
    20   11   47 1
    21   11   48 1
    22   12   16 2
    23   12   13 1
    24   13   14 2
    25   13   49 1
    26   14   15 1
    27   14   50 1
    28   15   16 1
    29   15   17 1
    30   16   51 1
    31   17   22 ar
    32   17   18 ar
    33   18   19 ar
    34   18   52 1
    35   19   33 1
    36   19   20 ar
    37   20   21 ar
    38   20   27 1
    39   21   22 ar
    40   21   53 1
    41   22   23 1
    42   23   24 1
    43   23   25 1
    44   23   26 1
    45   27   28 1
    46   27   29 am
    47   29   30 2
    48   29   31 1
    49   31   32 2
    50   31   33 am
    51   33   34 1
    52   34   35 1
    53   34   54 1
    54   34   55 1
    55   35   36 2
    56   35   37 1
    57   38   39 2
    58   38   40 1
@<TRIPOS>MOLECULE
CHEMBL294139
   28    27     0     0     0
SMALL
USER_CHARGES

@<TRIPOS>ATOM
      1 C1         -0.0184    1.5028    0.0103 C.3       1 <0>        -0.1183
      2 C2          0.0021   -0.0041    0.0020 C.2       1 <0>        -0.1955
      3 C3          0.5875   -0.6566    0.9755 C.2       1 <0>        -0.1260
      4 C4          0.6079   -2.1634    0.9672 C.3       1 <0>        -0.0717
      5 C5          2.0529   -2.6544    1.0765 C.3       1 <0>        -0.1640
      6 H1          2.6497   -2.2073    0.2815 H         1 <0>         0.0497
      7 C6          2.0851   -4.1783    0.9429 C.3       1 <0>        -0.1012
      8 C7          3.5378   -4.6582    0.9271 C.3       1 <0>        -0.0445
      9 H2          4.0522   -4.2887    1.8142 H         1 <0>         0.1362
     10 C8          3.5691   -6.1648    0.9193 C.2       1 <0>         0.4957
     11 O1          3.9335   -6.7619   -0.0792 O.co2     1 <0>        -0.6902
     12 O2          3.2298   -6.7867    1.9116 O.co2     1 <0>        -0.6373
     13 N1          4.2089   -4.1483   -0.2761 N.4       1 <0>        -0.6094
     14 C9          2.6192   -2.2554    2.4148 C.2       1 <0>         0.4964
     15 O3          2.0948   -2.6523    3.4415 O.co2     1 <0>        -0.6769
     16 O4          3.6017   -1.5357    2.4709 O.co2     1 <0>        -0.7047
     17 H3          1.0042    1.8801    0.0026 H         1 <0>         0.0601
     18 H4         -0.5455    1.8639   -0.8728 H         1 <0>         0.0537
     19 H5         -0.5286    1.8543    0.9071 H         1 <0>         0.0593
     20 H6         -0.4659   -0.5460   -0.8065 H         1 <0>         0.1017
     21 H7          1.0555   -0.1146    1.7840 H         1 <0>         0.1100
     22 H8          0.0315   -2.5392    1.8125 H         1 <0>         0.0820
     23 H9          0.1697   -2.5276    0.0380 H         1 <0>         0.0545
     24 H10         1.5630   -4.6282    1.7874 H         1 <0>         0.1107
     25 H11         1.5953   -4.4721    0.0146 H         1 <0>         0.0643
     26 H12         4.1880   -3.1395   -0.2709 H         1 <0>         0.4183
     27 H13         5.1669   -4.4648   -0.2865 H         1 <0>         0.4245
     28 H14         3.7327   -4.4904   -1.0973 H         1 <0>         0.4225
@<TRIPOS>BOND
     1    1    2 1
     2    1   17 1
     3    1   18 1
     4    1   19 1
     5    2    3 2
     6    2   20 1
     7    3    4 1
     8    3   21 1
     9    4    5 1
    10    4   22 1
    11    4   23 1
    12    5    6 1
    13    5    7 1
    14    5   14 1
    15    7    8 1
    16    7   24 1
    17    7   25 1
    18    8    9 1
    19    8   10 1
    20    8   13 1
    21   10   11 2
    22   10   12 1
    23   13   26 1
    24   13   27 1
    25   13   28 1
    26   14   15 2
    27   14   16 1
@<TRIPOS>MOLECULE
CHEMBL542242
   42    44     0     0     0
SMALL
USER_CHARGES

@<TRIPOS>ATOM
      1 C1         -0.0163    1.3478    0.0095 C.2       1 <0>        -0.0242
      2 C2          1.2861    1.7619   -0.0008 C.2       1 <0>        -0.0420
      3 N1          2.0675    0.6503   -0.0142 N.2       1 <0>        -0.4506
      4 C3          1.3017   -0.4016   -0.0125 C.2       1 <0>         0.1413
      5 N2          0.0021   -0.0041    0.0020 N.pl3     1 <0>        -0.4666
      6 C4         -1.1696   -0.8834    0.0089 C.3       1 <0>         0.1112
      7 C5         -1.5918   -1.1818   -1.4311 C.3       1 <0>        -0.1048
      8 H1         -1.7549   -0.2449   -1.9637 H         1 <0>         0.0859
      9 C6         -0.4905   -1.9815   -2.1305 C.3       1 <0>        -0.1247
     10 C7         -0.9131   -2.2722   -3.5719 C.3       1 <0>        -0.1082
     11 C8         -2.2103   -3.0796   -3.5743 C.3       1 <0>        -0.1002
     12 H2         -2.5114   -3.2768   -4.6032 H         1 <0>         0.0905
     13 C9         -1.9975   -4.4068   -2.8448 C.3       1 <0>        -0.0115
     14 N3         -3.2423   -5.1851   -2.8688 N.4       1 <0>        -0.4794
     15 C10        -4.2967   -4.4649   -2.1456 C.3       1 <0>        -0.0512
     16 H3         -3.9674   -4.2687   -1.1252 H         1 <0>         0.1302
     17 C11        -4.5923   -3.1384   -2.8490 C.3       1 <0>        -0.1142
     18 C12        -3.3143   -2.2921   -2.8641 C.3       1 <0>        -0.0939
     19 H4         -3.5034   -1.3616   -3.3993 H         1 <0>         0.0974
     20 C13        -2.8861   -1.9968   -1.4247 C.3       1 <0>        -0.1139
     21 C14        -5.5476   -5.3049   -2.1158 C.2       1 <0>         0.4912
     22 O1         -5.5582   -6.4017   -2.6482 O.co2     1 <0>        -0.6786
     23 O2         -6.5489   -4.8876   -1.5593 O.co2     1 <0>        -0.6374
     24 C15         1.7553    3.1539    0.0022 C.2       1 <0>         0.5547
     25 O3          0.9464    4.0723    0.0149 O.co2     1 <0>        -0.6949
     26 O4          2.9551    3.3953   -0.0079 O.co2     1 <0>        -0.6764
     27 H5         -0.8922    1.9793    0.0252 H         1 <0>         0.1736
     28 H6          1.6438   -1.4259   -0.0218 H         1 <0>         0.1916
     29 H7         -0.9210   -1.8161    0.5153 H         1 <0>         0.0857
     30 H8         -1.9893   -0.3924    0.5335 H         1 <0>         0.0893
     31 H9          0.4336   -1.4036   -2.1320 H         1 <0>         0.0811
     32 H10        -0.3315   -2.9212   -1.6015 H         1 <0>         0.0622
     33 H11        -1.0700   -1.3320   -4.1005 H         1 <0>         0.0806
     34 H12        -0.1299   -2.8424   -4.0715 H         1 <0>         0.0730
     35 H13        -1.2070   -4.9708   -3.3400 H         1 <0>         0.1238
     36 H14        -1.7113   -4.2114   -1.8114 H         1 <0>         0.1265
     37 H15        -3.5297   -5.3280   -3.8254 H         1 <0>         0.4219
     38 H16        -4.9196   -3.3325   -3.8705 H         1 <0>         0.0801
     39 H17        -5.3754   -2.6061   -2.3091 H         1 <0>         0.1108
     40 H18        -2.7213   -2.9353   -0.8955 H         1 <0>         0.0630
     41 H19        -3.6695   -1.4298   -0.9219 H         1 <0>         0.0802
     42 H20        -3.0863   -6.0802   -2.4299 H         1 <0>         0.4268
@<TRIPOS>BOND
     1    1    5 1
     2    1    2 2
     3    1   27 1
     4    2    3 1
     5    2   24 1
     6    3    4 2
     7    4    5 1
     8    4   28 1
     9    5    6 1
    10    6    7 1
    11    6   29 1
    12    6   30 1
    13    7    8 1
    14    7   20 1
    15    7    9 1
    16    9   10 1
    17    9   31 1
    18    9   32 1
    19   10   11 1
    20   10   33 1
    21   10   34 1
    22   11   12 1
    23   11   18 1
    24   11   13 1
    25   13   14 1
    26   13   35 1
    27   13   36 1
    28   14   15 1
    29   14   37 1
    30   14   42 1
    31   15   16 1
    32   15   17 1
    33   15   21 1
    34   17   18 1
    35   17   38 1
    36   17   39 1
    37   18   19 1
    38   18   20 1
    39   20   40 1
    40   20   41 1
    41   21   22 2
    42   21   23 1
    43   24   25 2
    44   24   26 1
@<TRIPOS>MOLECULE
CHEMBL542242__1
   43    45     0     0     0
SMALL
USER_CHARGES

@<TRIPOS>ATOM
      1 C1         -0.0163    1.3478    0.0095 C.2       1 <0>         0.0463
      2 C2          1.2861    1.7619   -0.0008 C.2       1 <0>        -0.0013
      3 N1          2.0675    0.6503   -0.0142 N.pl3     1 <0>        -0.4466
      4 C3          1.3017   -0.4016   -0.0125 C.cat     1 <0>         0.2431
      5 N2          0.0021   -0.0041    0.0020 N.pl3     1 <0>        -0.4089
      6 C4         -1.1696   -0.8834    0.0089 C.3       1 <0>         0.0971
      7 C5         -1.5918   -1.1818   -1.4311 C.3       1 <0>        -0.1101
      8 H1         -1.7549   -0.2449   -1.9637 H         1 <0>         0.0962
      9 C6         -0.4905   -1.9815   -2.1305 C.3       1 <0>        -0.1297
     10 C7         -0.9131   -2.2722   -3.5719 C.3       1 <0>        -0.1087
     11 C8         -2.2103   -3.0796   -3.5743 C.3       1 <0>        -0.1041
     12 H2         -2.5114   -3.2768   -4.6032 H         1 <0>         0.0970
     13 C9         -1.9975   -4.4068   -2.8448 C.3       1 <0>        -0.0106
     14 N3         -3.2423   -5.1851   -2.8688 N.4       1 <0>        -0.4809
     15 C10        -4.2967   -4.4649   -2.1456 C.3       1 <0>        -0.0517
     16 H3         -3.9674   -4.2687   -1.1252 H         1 <0>         0.1286
     17 C11        -4.5923   -3.1384   -2.8490 C.3       1 <0>        -0.1165
     18 C12        -3.3143   -2.2921   -2.8641 C.3       1 <0>        -0.0932
     19 H4         -3.5034   -1.3616   -3.3993 H         1 <0>         0.1001
     20 C13        -2.8861   -1.9968   -1.4247 C.3       1 <0>        -0.1157
     21 C14        -5.5476   -5.3049   -2.1158 C.2       1 <0>         0.4888
     22 O1         -5.5582   -6.4017   -2.6482 O.co2     1 <0>        -0.6734
     23 O2         -6.5489   -4.8876   -1.5593 O.co2     1 <0>        -0.6341
     24 C15         1.7553    3.1539    0.0022 C.2       1 <0>         0.5423
     25 O3          2.9551    3.3953   -0.0079 O.co2     1 <0>        -0.6522
     26 O4          0.9464    4.0723    0.0149 O.co2     1 <0>        -0.6333
     27 H5         -0.8922    1.9793    0.0252 H         1 <0>         0.2223
     28 H6          1.6438   -1.4259   -0.0218 H         1 <0>         0.2489
     29 H7         -0.9210   -1.8161    0.5153 H         1 <0>         0.1142
     30 H8         -1.9893   -0.3924    0.5335 H         1 <0>         0.1232
     31 H9          0.4336   -1.4036   -2.1320 H         1 <0>         0.0685
     32 H10        -0.3315   -2.9212   -1.6015 H         1 <0>         0.0714
     33 H11        -1.0700   -1.3320   -4.1005 H         1 <0>         0.0835
     34 H12        -0.1299   -2.8424   -4.0715 H         1 <0>         0.0784
     35 H13        -1.2070   -4.9708   -3.3400 H         1 <0>         0.1250
     36 H14        -1.7113   -4.2114   -1.8114 H         1 <0>         0.1226
     37 H15        -3.5297   -5.3280   -3.8254 H         1 <0>         0.4251
     38 H16        -4.9196   -3.3325   -3.8705 H         1 <0>         0.0845
     39 H17        -5.3754   -2.6061   -2.3091 H         1 <0>         0.1136
     40 H18        -2.7213   -2.9353   -0.8955 H         1 <0>         0.0694
     41 H19        -3.6695   -1.4298   -0.9219 H         1 <0>         0.0878
     42 H20        -3.0863   -6.0802   -2.4299 H         1 <0>         0.4296
     43 H21         3.0375    0.6423   -0.0238 H         1 <0>         0.4637
@<TRIPOS>BOND
     1    1    5 1
     2    1    2 2
     3    1   27 1
     4    2    3 1
     5    2   24 1
     6    3    4 2
     7    3   43 1
     8    4    5 1
     9    4   28 1
    10    5    6 1
    11    6    7 1
    12    6   29 1
    13    6   30 1
    14    7    8 1
    15    7   20 1
    16    7    9 1
    17    9   10 1
    18    9   31 1
    19    9   32 1
    20   10   11 1
    21   10   33 1
    22   10   34 1
    23   11   12 1
    24   11   18 1
    25   11   13 1
    26   13   14 1
    27   13   35 1
    28   13   36 1
    29   14   15 1
    30   14   37 1
    31   14   42 1
    32   15   16 1
    33   15   17 1
    34   15   21 1
    35   17   18 1
    36   17   38 1
    37   17   39 1
    38   18   19 1
    39   18   20 1
    40   20   40 1
    41   20   41 1
    42   21   22 2
    43   21   23 1
    44   24   25 2
    45   24   26 1
@<TRIPOS>MOLECULE
CHEMBL40807
   26    26     0     0     0
SMALL
USER_CHARGES

@<TRIPOS>ATOM
      1 C1          1.0191   -0.6930   -1.9064 C.3       1 <0>        -0.1236
      2 C2          0.3009   -0.3895   -0.6167 C.2       1 <0>        -0.0917
      3 C3          0.8792    0.3506    0.2965 C.2       1 <0>        -0.1894
      4 C4         -1.0825   -0.9373   -0.3776 C.3       1 <0>        -0.0542
      5 H1         -1.0933   -2.0204   -0.4999 H         1 <0>         0.0923
      6 C5         -1.5942   -0.5393    1.0296 C.3       1 <0>        -0.0004
      7 N1         -3.0711   -0.5969    0.8831 N.4       1 <0>        -0.4906
      8 C6         -3.3648   -0.0490   -0.4589 C.3       1 <0>        -0.0275
      9 H2         -3.5851    1.0160   -0.3851 H         1 <0>         0.1326
     10 C7         -2.1064   -0.2696   -1.3241 C.3       1 <0>        -0.1470
     11 H3         -2.3312   -0.9278   -2.1633 H         1 <0>         0.0965
     12 C8         -1.5760    1.0506   -1.8209 C.2       1 <0>         0.5153
     13 O1         -1.3574    1.2113   -3.0096 O.co2     1 <0>        -0.6758
     14 O2         -1.3654    1.9579   -1.0342 O.co2     1 <0>        -0.6925
     15 C9         -4.5386   -0.7749   -1.0643 C.2       1 <0>         0.4960
     16 O3         -5.1050   -1.6509   -0.4331 O.co2     1 <0>        -0.6926
     17 O4         -4.9217   -0.4863   -2.1851 O.co2     1 <0>        -0.6336
     18 H4          1.9610   -0.1453   -1.9353 H         1 <0>         0.0584
     19 H5          1.2187   -1.7627   -1.9680 H         1 <0>         0.0576
     20 H6          0.3968   -0.3904   -2.7486 H         1 <0>         0.0884
     21 H7          0.4017    0.4981    1.2540 H         1 <0>         0.0914
     22 H8          1.8334    0.8132    0.0920 H         1 <0>         0.0968
     23 H9         -1.2538   -1.2538    1.7790 H         1 <0>         0.1184
     24 H10        -1.2720    0.4703    1.2848 H         1 <0>         0.1390
     25 H11        -3.3900   -1.5521    0.9463 H         1 <0>         0.4221
     26 H12        -3.5135   -0.0333    1.5935 H         1 <0>         0.4143
@<TRIPOS>BOND
     1    1    2 1
     2    1   18 1
     3    1   19 1
     4    1   20 1
     5    2    3 2
     6    2    4 1
     7    3   21 1
     8    3   22 1
     9    4    5 1
    10    4   10 1
    11    4    6 1
    12    6    7 1
    13    6   23 1
    14    6   24 1
    15    7    8 1
    16    7   25 1
    17    7   26 1
    18    8    9 1
    19    8   10 1
    20    8   15 1
    21   10   11 1
    22   10   12 1
    23   12   13 2
    24   12   14 1
    25   15   16 2
    26   15   17 1
@<TRIPOS>MOLECULE
CHEMBL40807__1
   27    27     0     0     0
SMALL
USER_CHARGES

@<TRIPOS>ATOM
      1 C1          0.3901   -0.3262    1.0577 C.3       1 <0>        -0.1199
      2 C2         -0.3855    0.0596   -0.1755 C.2       1 <0>        -0.1325
      3 C3         -1.2743    1.0202   -0.1164 C.2       1 <0>        -0.1778
      4 C4         -0.1387   -0.6596   -1.4765 C.3       1 <0>        -0.0599
      5 H1         -0.1612   -1.7394   -1.3290 H         1 <0>         0.1280
      6 C5         -1.1751   -0.2306   -2.5453 C.3       1 <0>        -0.0106
      7 N1         -0.4774   -0.5095   -3.8266 N.4       1 <0>        -0.4907
      8 C6          0.9319   -0.1148   -3.6124 C.3       1 <0>        -0.0403
      9 H2          1.0857    0.9103   -3.9493 H         1 <0>         0.1480
     10 C7          1.2070   -0.2203   -2.0978 C.3       1 <0>        -0.0783
     11 H3          1.9763   -0.9670   -1.9011 H         1 <0>         0.1430
     12 C8          1.6242    1.1195   -1.5482 C.2       1 <0>         0.5001
     13 O1          1.2196    2.1357   -2.0615 O.2       1 <0>        -0.5124
     14 O2          2.4453    1.1838   -0.4883 O.3       1 <0>        -0.4904
     15 C9          1.8460   -1.0455   -4.3669 C.2       1 <0>         0.4952
     16 O3          1.3767   -1.9417   -5.0476 O.co2     1 <0>        -0.6628
     17 O4          3.0547   -0.9023   -4.2967 O.co2     1 <0>        -0.6273
     18 H4         -0.1767   -1.0621    1.6280 H         1 <0>         0.0742
     19 H5          1.3491   -0.7536    0.7648 H         1 <0>         0.0741
     20 H6          0.5589    0.5581    1.6722 H         1 <0>         0.0707
     21 H7         -1.8813    1.2481   -0.9801 H         1 <0>         0.1028
     22 H8         -1.4000    1.5842    0.7960 H         1 <0>         0.1120
     23 H9         -2.0825   -0.8290   -2.4633 H         1 <0>         0.1405
     24 H10        -1.4038    0.8313   -2.4550 H         1 <0>         0.1380
     25 H11        -0.5338   -1.4925   -4.0467 H         1 <0>         0.4346
     26 H12        -0.8830    0.0388   -4.5702 H         1 <0>         0.4285
     27 H13         2.6563    2.0851   -0.2084 H         1 <0>         0.4134
@<TRIPOS>BOND
     1    1    2 1
     2    1   18 1
     3    1   19 1
     4    1   20 1
     5    2    3 2
     6    2    4 1
     7    3   21 1
     8    3   22 1
     9    4    5 1
    10    4   10 1
    11    4    6 1
    12    6    7 1
    13    6   23 1
    14    6   24 1
    15    7    8 1
    16    7   25 1
    17    7   26 1
    18    8    9 1
    19    8   10 1
    20    8   15 1
    21   10   11 1
    22   10   12 1
    23   12   13 2
    24   12   14 1
    25   14   27 1
    26   15   16 2
    27   15   17 1
@<TRIPOS>MOLECULE
CHEMBL370941
   30    31     0     0     0
SMALL
USER_CHARGES

@<TRIPOS>ATOM
      1 C1         -0.0187    1.5258    0.0104 C.3       1 <0>        -0.1722
      2 C2          0.0021   -0.0041    0.0020 C.3       1 <0>         0.1222
      3 N1         -1.3723   -0.5112    0.0124 N.pl3     1 <0>        -0.1345
      4 N2         -2.0631   -0.7698    1.0692 N.2       1 <0>        -0.2807
      5 C3         -3.2470   -1.2047    0.6807 C.2       1 <0>         0.2215
      6 N3         -3.2374   -1.1959   -0.6611 N.2       1 <0>        -0.2116
      7 N4         -2.0807   -0.7627   -1.0325 N.2       1 <0>        -0.0417
      8 C4         -4.3663   -1.6214    1.5543 C.2       1 <0>         0.1567
      9 C5         -5.5791   -2.0667    1.1305 C.2       1 <0>        -0.1972
     10 C6         -6.3598   -2.3597    2.2637 C.2       1 <0>         0.5358
     11 N5         -5.6104   -2.0883    3.3523 N.am      1 <0>        -0.5685
     12 O1         -4.3506   -1.6279    2.8972 O.3       1 <0>        -0.0380
     13 O2         -7.5053   -2.7815    2.2621 O.2       1 <0>        -0.4943
     14 C7         -6.0122   -2.2195   -0.3048 C.3       1 <0>        -0.0738
     15 C8         -5.7738   -3.6610   -0.7588 C.3       1 <0>         0.0404
     16 C9         -6.0911   -3.7843   -2.2268 C.2       1 <0>         0.5076
     17 O3         -5.2188   -3.5942   -3.0571 O.co2     1 <0>        -0.6944
     18 O4         -7.2201   -4.0742   -2.5842 O.co2     1 <0>        -0.6901
     19 N6         -6.6414   -4.5656    0.0074 N.3       1 <0>        -0.8228
     20 H1          1.0039    1.9031    0.0027 H         1 <0>         0.0930
     21 H2         -0.5459    1.8868   -0.8726 H         1 <0>         0.0729
     22 H3         -0.5289    1.8773    0.9072 H         1 <0>         0.0696
     23 H4          0.5123   -0.3556   -0.8948 H         1 <0>         0.1231
     24 H5          0.5293   -0.3651    0.8851 H         1 <0>         0.1176
     25 H6         -7.0725   -1.9819   -0.3916 H         1 <0>         0.0798
     26 H7         -5.4352   -1.5406   -0.9327 H         1 <0>         0.0989
     27 H8         -4.7306   -3.9276   -0.5889 H         1 <0>         0.0651
     28 H9         -6.4045   -4.5493    0.9881 H         1 <0>         0.3112
     29 H10        -7.6144   -4.3388   -0.1334 H         1 <0>         0.3467
     30 H11        -5.8832   -2.1928    4.2773 H         1 <0>         0.4573
@<TRIPOS>BOND
     1    1    2 1
     2    1   20 1
     3    1   21 1
     4    1   22 1
     5    2    3 1
     6    2   23 1
     7    2   24 1
     8    3    7 1
     9    3    4 1
    10    4    5 2
    11    5    6 1
    12    5    8 1
    13    6    7 2
    14    8    9 2
    15    8   12 1
    16    9   10 1
    17    9   14 1
    18   10   11 am
    19   10   13 2
    20   11   12 1
    21   11   30 1
    22   14   15 1
    23   14   25 1
    24   14   26 1
    25   15   16 1
    26   15   19 1
    27   15   27 1
    28   16   17 2
    29   16   18 1
    30   19   28 1
    31   19   29 1
@<TRIPOS>MOLECULE
CHEMBL370941__1
   30    31     0     0     0
SMALL
USER_CHARGES

@<TRIPOS>ATOM
      1 C1         -0.0187    1.5258    0.0104 C.3       1 <0>        -0.1721
      2 C2          0.0021   -0.0041    0.0020 C.3       1 <0>         0.1235
      3 N1         -1.3723   -0.5112    0.0124 N.pl3     1 <0>        -0.1357
      4 N2         -2.0631   -0.7698    1.0692 N.2       1 <0>        -0.2861
      5 C3         -3.2470   -1.2047    0.6807 C.2       1 <0>         0.2445
      6 N3         -3.2374   -1.1959   -0.6611 N.2       1 <0>        -0.2193
      7 N4         -2.0807   -0.7627   -1.0325 N.2       1 <0>        -0.0499
      8 C4         -4.3663   -1.6214    1.5543 C.2       1 <0>         0.1578
      9 C5         -5.5791   -2.0667    1.1305 C.2       1 <0>        -0.1746
     10 C6         -6.3598   -2.3597    2.2637 C.2       1 <0>         0.5368
     11 N5         -5.6104   -2.0883    3.3523 N.am      1 <0>        -0.5715
     12 O1         -4.3506   -1.6279    2.8972 O.3       1 <0>        -0.0421
     13 O2         -7.5053   -2.7815    2.2621 O.2       1 <0>        -0.4979
     14 C7         -6.0122   -2.2195   -0.3048 C.3       1 <0>        -0.0294
     15 C8         -5.7738   -3.6610   -0.7588 C.3       1 <0>         0.0317
     16 C9         -6.3189   -3.8457   -2.1515 C.2       1 <0>         0.4696
     17 O3         -5.5555   -4.0011   -3.0893 O.co2     1 <0>        -0.6973
     18 O4         -7.5234   -3.8397   -2.3405 O.co2     1 <0>        -0.6973
     19 N6         -4.3321   -3.9432   -0.7558 N.3       1 <0>        -0.8325
     20 H1          1.0039    1.9031    0.0027 H         1 <0>         0.0917
     21 H2         -0.5459    1.8868   -0.8726 H         1 <0>         0.0721
     22 H3         -0.5289    1.8773    0.9072 H         1 <0>         0.0697
     23 H4          0.5123   -0.3556   -0.8948 H         1 <0>         0.1212
     24 H5          0.5293   -0.3651    0.8851 H         1 <0>         0.1166
     25 H6         -7.0725   -1.9819   -0.3916 H         1 <0>         0.0871
     26 H7         -5.4352   -1.5406   -0.9327 H         1 <0>         0.0888
     27 H8         -6.2793   -4.3450   -0.0771 H         1 <0>         0.0707
     28 H9         -4.1520   -4.9080   -0.9898 H         1 <0>         0.3277
     29 H10        -3.8407   -3.3217   -1.3806 H         1 <0>         0.3410
     30 H11        -5.8832   -2.1928    4.2773 H         1 <0>         0.4550
@<TRIPOS>BOND
     1    1    2 1
     2    1   20 1
     3    1   21 1
     4    1   22 1
     5    2    3 1
     6    2   23 1
     7    2   24 1
     8    3    7 1
     9    3    4 1
    10    4    5 2
    11    5    6 1
    12    5    8 1
    13    6    7 2
    14    8    9 2
    15    8   12 1
    16    9   10 1
    17    9   14 1
    18   10   11 am
    19   10   13 2
    20   11   12 1
    21   11   30 1
    22   14   15 1
    23   14   25 1
    24   14   26 1
    25   15   16 1
    26   15   19 1
    27   15   27 1
    28   16   17 2
    29   16   18 1
    30   19   28 1
    31   19   29 1
@<TRIPOS>MOLECULE
CHEMBL303415
   52    55     0     0     0
SMALL
USER_CHARGES

@<TRIPOS>ATOM
      1 C1         -0.0038    1.4924   -0.1561 C.2       1 <0>        -0.1796
      2 C2          1.2851    1.8873   -0.1972 C.2       1 <0>         0.0590
      3 N1          2.0746    0.7819   -0.0577 N.pl3     1 <0>        -0.3933
      4 C3          1.2717   -0.3150    0.0719 C.2       1 <0>         0.0457
      5 C4         -0.0123    0.0935    0.0148 C.2       1 <0>        -0.2313
      6 C5         -1.2326   -0.7849    0.1154 C.3       1 <0>         0.0835
      7 N2         -1.6211   -1.2389   -1.2265 N.4       1 <0>        -0.3828
      8 C6         -2.0300   -0.0828   -2.0332 C.3       1 <0>        -0.0078
      9 C7         -2.3583   -0.5395   -3.4563 C.3       1 <0>        -0.1475
     10 C8         -3.4993   -1.5598   -3.4087 C.3       1 <0>        -0.1369
     11 C9         -3.0904   -2.7263   -2.5046 C.3       1 <0>        -0.1464
     12 C10        -2.7350   -2.1885   -1.1168 C.3       1 <0>        -0.0057
     13 C11         3.4771    0.7744   -0.0497 C.ar      1 <0>         0.1827
     14 C12         4.1700    0.0169   -0.9803 C.ar      1 <0>        -0.1165
     15 C13         5.5594    0.0092   -0.9734 C.ar      1 <0>         0.2268
     16 C14         6.2527    0.7662   -0.0263 C.ar      1 <0>         0.1255
     17 C15         5.5488    1.5231    0.9041 C.ar      1 <0>        -0.0408
     18 C16         4.1698    1.5315    0.8883 C.ar      1 <0>        -0.0572
     19 N3          3.4252    2.3440    1.8765 N.pl3     1 <0>         0.0401
     20 O1          4.0209    3.0945    2.6138 O.2       1 <0>        -0.1527
     21 O2          2.2214    2.2570    1.9464 O.3       1 <0>        -0.1480
     22 N4          7.6453    0.7697   -0.0047 N.am      1 <0>        -0.6320
     23 H1          8.1180    1.2984    0.6571 H         1 <0>         0.4276
     24 C17         8.3373    0.0390   -0.9020 C.2       1 <0>         0.5173
     25 O3          9.5520    0.0383   -0.8865 O.2       1 <0>        -0.4514
     26 C18         7.5967   -0.7687   -1.9134 C.2       1 <0>         0.5091
     27 O4          8.2019   -1.4339   -2.7298 O.2       1 <0>        -0.4346
     28 N5          6.2484   -0.7544   -1.9115 N.am      1 <0>        -0.4915
     29 C19         5.5073   -1.5440   -2.8982 C.3       1 <0>         0.0172
     30 C20         5.2633   -0.7093   -4.1289 C.2       1 <0>         0.4856
     31 O5          5.6707    0.4389   -4.1774 O.co2     1 <0>        -0.6730
     32 O6          4.6586   -1.1820   -5.0762 O.co2     1 <0>        -0.6776
     33 H2         -0.8707    2.1317   -0.2351 H         1 <0>         0.1501
     34 H3          1.6328    2.9025   -0.3197 H         1 <0>         0.1654
     35 H4          1.6071   -1.3338    0.1984 H         1 <0>         0.1722
     36 H5         -1.0077   -1.6491    0.7404 H         1 <0>         0.1287
     37 H6         -2.0519   -0.2192    0.5590 H         1 <0>         0.1318
     38 H7         -2.9118    0.3773   -1.5873 H         1 <0>         0.1235
     39 H8         -1.2181    0.6439   -2.0635 H         1 <0>         0.1365
     40 H9         -2.6633    0.3201   -4.0532 H         1 <0>         0.1085
     41 H10        -1.4770   -0.9995   -3.9033 H         1 <0>         0.0881
     42 H11        -4.3957   -1.0857   -3.0090 H         1 <0>         0.0787
     43 H12        -3.6990   -1.9305   -4.4140 H         1 <0>         0.0903
     44 H13        -3.9187   -3.4298   -2.4212 H         1 <0>         0.1076
     45 H14        -2.2243   -3.2317   -2.9319 H         1 <0>         0.0872
     46 H15        -2.4436   -3.0165   -0.4705 H         1 <0>         0.1266
     47 H16        -3.6017   -1.6836   -0.6903 H         1 <0>         0.1256
     48 H17         3.6303   -0.5677   -1.7106 H         1 <0>         0.1686
     49 H18         6.0830    2.1089    1.6375 H         1 <0>         0.1763
     50 H19         6.0876   -2.4267   -3.1671 H         1 <0>         0.1081
     51 H20         4.5522   -1.8527   -2.4733 H         1 <0>         0.0913
     52 H21        -0.8354   -1.6931   -1.6674 H         1 <0>         0.4214
@<TRIPOS>BOND
     1    1    5 1
     2    1    2 2
     3    1   33 1
     4    2    3 1
     5    2   34 1
     6    3    4 1
     7    3   13 1
     8    4    5 2
     9    4   35 1
    10    5    6 1
    11    6    7 1
    12    6   36 1
    13    6   37 1
    14    7   12 1
    15    7    8 1
    16    7   52 1
    17    8    9 1
    18    8   38 1
    19    8   39 1
    20    9   10 1
    21    9   40 1
    22    9   41 1
    23   10   11 1
    24   10   42 1
    25   10   43 1
    26   11   12 1
    27   11   44 1
    28   11   45 1
    29   12   46 1
    30   12   47 1
    31   13   18 ar
    32   13   14 ar
    33   14   15 ar
    34   14   48 1
    35   15   28 1
    36   15   16 ar
    37   16   17 ar
    38   16   22 1
    39   17   18 ar
    40   17   49 1
    41   18   19 1
    42   19   20 2
    43   19   21 1
    44   22   23 1
    45   22   24 am
    46   24   25 2
    47   24   26 1
    48   26   27 2
    49   26   28 am
    50   28   29 1
    51   29   30 1
    52   29   50 1
    53   29   51 1
    54   30   31 2
    55   30   32 1
@<TRIPOS>MOLECULE
CHEMBL303415__1
   51    54     0     0     0
SMALL
USER_CHARGES

@<TRIPOS>ATOM
      1 C1         -0.0034    1.4951   -0.1588 C.2       1 <0>        -0.1942
      2 C2          1.2854    1.8895   -0.1998 C.2       1 <0>         0.0626
      3 N1          2.0746    0.7836   -0.0589 N.pl3     1 <0>        -0.3641
      4 C3          1.2709   -0.3132    0.0715 C.2       1 <0>         0.0474
      5 C4         -0.0126    0.0961    0.0135 C.2       1 <0>        -0.2511
      6 C5         -1.2335   -0.7816    0.1144 C.3       1 <0>         0.0886
      7 N2         -1.6218   -1.2365   -1.2273 N.4       1 <0>        -0.3832
      8 C6         -2.0296   -0.0809   -2.0352 C.3       1 <0>        -0.0068
      9 C7         -2.3576   -0.5387   -3.4580 C.3       1 <0>        -0.1480
     10 C8         -3.4992   -1.5584   -3.4098 C.3       1 <0>        -0.1352
     11 C9         -3.0913   -2.7243   -2.5045 C.3       1 <0>        -0.1465
     12 C10        -2.7362   -2.1855   -1.1171 C.3       1 <0>        -0.0052
     13 C11         3.4746    0.7754   -0.0504 C.ar      1 <0>         0.0864
     14 C12         4.1648    0.0177   -0.9816 C.ar      1 <0>        -0.1051
     15 C13         5.5540    0.0100   -0.9726 C.ar      1 <0>         0.1373
     16 C14         6.2501    0.7729   -0.0165 C.ar      1 <0>         0.1880
     17 C15         5.5301    1.5331    0.9174 C.ar      1 <0>        -0.0603
     18 C16         4.1669    1.5346    0.8920 C.ar      1 <0>        -0.0403
     19 N3          3.4156    2.3444    1.8773 N.pl3     1 <0>         0.0467
     20 O1          4.0056    3.0968    2.6171 O.2       1 <0>        -0.1717
     21 O2          2.2118    2.2533    1.9423 O.3       1 <0>        -0.1756
     22 N4          7.5983    0.7783    0.0075 N.2       1 <0>        -0.6054
     23 C17         8.2904    0.0785   -0.8520 C.2       1 <0>         0.4329
     24 O3          9.6448    0.1001   -0.8072 O.3       1 <0>        -0.6075
     25 C18         7.6018   -0.7339   -1.8687 C.2       1 <0>         0.4788
     26 O4          8.2413   -1.3884   -2.6718 O.2       1 <0>        -0.4988
     27 N5          6.2513   -0.7433   -1.8990 N.am      1 <0>        -0.4879
     28 C19         5.5359   -1.5404   -2.8986 C.3       1 <0>         0.0253
     29 C20         5.3024   -0.7071   -4.1323 C.2       1 <0>         0.4872
     30 O5          5.6970    0.4458   -4.1729 O.co2     1 <0>        -0.6710
     31 O6          4.7189   -1.1857   -5.0898 O.co2     1 <0>        -0.6994
     32 H1         -0.8700    2.1346   -0.2386 H         1 <0>         0.1413
     33 H2          1.6335    2.9044   -0.3233 H         1 <0>         0.1587
     34 H3          1.6055   -1.3321    0.1984 H         1 <0>         0.1650
     35 H4         -1.0093   -1.6454    0.7403 H         1 <0>         0.1247
     36 H5         -2.0527   -0.2150    0.5572 H         1 <0>         0.1267
     37 H6         -2.9113    0.3801   -1.5900 H         1 <0>         0.1207
     38 H7         -1.2174    0.6453   -2.0658 H         1 <0>         0.1393
     39 H8         -2.6620    0.3204   -4.0557 H         1 <0>         0.1068
     40 H9         -1.4765   -0.9997   -3.9043 H         1 <0>         0.0886
     41 H10        -4.3956   -1.0835   -3.0109 H         1 <0>         0.0768
     42 H11        -3.6987   -1.9299   -4.4150 H         1 <0>         0.0880
     43 H12        -3.9201   -3.4273   -2.4208 H         1 <0>         0.1047
     44 H13        -2.2254   -3.2306   -2.9310 H         1 <0>         0.0872
     45 H14        -2.4455   -3.0130   -0.4699 H         1 <0>         0.1251
     46 H15        -3.6028   -1.6796   -0.6914 H         1 <0>         0.1231
     47 H16         3.6247   -0.5658   -1.7125 H         1 <0>         0.1431
     48 H17         6.0565    2.1211    1.6548 H         1 <0>         0.1621
     49 H18         6.1308   -2.4159   -3.1587 H         1 <0>         0.0941
     50 H19         4.5775   -1.8607   -2.4897 H         1 <0>         0.0774
     51 H20        -0.8361   -1.6916   -1.6674 H         1 <0>         0.4222
@<TRIPOS>BOND
     1    1    5 1
     2    1    2 2
     3    1   32 1
     4    2    3 1
     5    2   33 1
     6    3    4 1
     7    3   13 1
     8    4    5 2
     9    4   34 1
    10    5    6 1
    11    6    7 1
    12    6   35 1
    13    6   36 1
    14    7   12 1
    15    7    8 1
    16    7   51 1
    17    8    9 1
    18    8   37 1
    19    8   38 1
    20    9   10 1
    21    9   39 1
    22    9   40 1
    23   10   11 1
    24   10   41 1
    25   10   42 1
    26   11   12 1
    27   11   43 1
    28   11   44 1
    29   12   45 1
    30   12   46 1
    31   13   18 ar
    32   13   14 ar
    33   14   15 ar
    34   14   47 1
    35   15   27 1
    36   15   16 ar
    37   16   17 ar
    38   16   22 1
    39   17   18 ar
    40   17   48 1
    41   18   19 1
    42   19   20 2
    43   19   21 1
    44   22   23 2
    45   23   24 1
    46   23   25 1
    47   25   26 2
    48   25   27 am
    49   27   28 1
    50   28   29 1
    51   28   49 1
    52   28   50 1
    53   29   30 2
    54   29   31 1
@<TRIPOS>MOLECULE
CHEMBL58095
   35    35     0     0     0
SMALL
USER_CHARGES

@<TRIPOS>ATOM
      1 C1         -0.0167    1.3792    0.0096 C.ar      1 <0>        -0.1326
      2 C2          1.1683    2.0931    0.0021 C.ar      1 <0>        -0.1217
      3 C3          2.3774    1.4286   -0.0134 C.ar      1 <0>        -0.1202
      4 C4          2.4032    0.0335   -0.0212 C.ar      1 <0>        -0.0382
      5 C5          1.2045   -0.6806   -0.0131 C.ar      1 <0>        -0.1182
      6 C6          0.0021   -0.0041    0.0020 C.ar      1 <0>        -0.1154
      7 C7          3.6950   -0.6848   -0.0384 C.2       1 <0>        -0.1610
      8 C8          3.7162   -2.0103   -0.0457 C.2       1 <0>        -0.0968
      9 C9          5.0332   -2.7426   -0.0633 C.3       1 <0>        -0.0740
     10 C10         5.0890   -3.7199    1.1126 C.3       1 <0>        -0.1649
     11 H1          4.9036   -3.1812    2.0419 H         1 <0>         0.0509
     12 C11         6.4718   -4.3723    1.1684 C.3       1 <0>        -0.1010
     13 C12         6.5697   -5.2542    2.4148 C.3       1 <0>        -0.0445
     14 H2          5.7499   -5.9725    2.4169 H         1 <0>         0.1363
     15 C13         7.8839   -5.9918    2.4063 C.2       1 <0>         0.4956
     16 O1          8.7516   -5.7005    3.2117 O.co2     1 <0>        -0.6898
     17 O2          8.0793   -6.8798    1.5941 O.co2     1 <0>        -0.6369
     18 N1          6.4876   -4.4139    3.6170 N.4       1 <0>        -0.6096
     19 C14         4.0382   -4.7848    0.9310 C.2       1 <0>         0.4955
     20 O3          4.0639   -5.5053   -0.0522 O.co2     1 <0>        -0.6756
     21 O4          3.1623   -4.9258    1.7674 O.co2     1 <0>        -0.7030
     22 H3         -0.9604    1.9041    0.0260 H         1 <0>         0.1175
     23 H4          1.1469    3.1729    0.0082 H         1 <0>         0.1184
     24 H5          3.3018    1.9870   -0.0200 H         1 <0>         0.1201
     25 H6          1.2178   -1.7605   -0.0194 H         1 <0>         0.1282
     26 H7         -0.9265   -0.5556    0.0079 H         1 <0>         0.1212
     27 H8          4.6214   -0.1298   -0.0450 H         1 <0>         0.1148
     28 H9          2.7898   -2.5653   -0.0392 H         1 <0>         0.1174
     29 H10         5.1300   -3.2938   -0.9987 H         1 <0>         0.0874
     30 H11         5.8492   -2.0250    0.0217 H         1 <0>         0.0586
     31 H12         6.6215   -4.9833    0.2783 H         1 <0>         0.1112
     32 H13         7.2375   -3.5977    1.2104 H         1 <0>         0.0650
     33 H14         7.2465   -3.7490    3.6150 H         1 <0>         0.4226
     34 H15         5.6077   -3.9201    3.6227 H         1 <0>         0.4182
     35 H16         6.5522   -4.9955    4.4389 H         1 <0>         0.4248
@<TRIPOS>BOND
     1    1    6 ar
     2    1    2 ar
     3    1   22 1
     4    2    3 ar
     5    2   23 1
     6    3    4 ar
     7    3   24 1
     8    4    5 ar
     9    4    7 1
    10    5    6 ar
    11    5   25 1
    12    6   26 1
    13    7    8 2
    14    7   27 1
    15    8    9 1
    16    8   28 1
    17    9   10 1
    18    9   29 1
    19    9   30 1
    20   10   11 1
    21   10   12 1
    22   10   19 1
    23   12   13 1
    24   12   31 1
    25   12   32 1
    26   13   14 1
    27   13   15 1
    28   13   18 1
    29   15   16 2
    30   15   17 1
    31   18   33 1
    32   18   34 1
    33   18   35 1
    34   19   20 2
    35   19   21 1
@<TRIPOS>MOLECULE
CHEMBL14639
   34    37     0     0     0
SMALL
USER_CHARGES

@<TRIPOS>ATOM
      1 C1         -0.0187    1.5258    0.0104 C.3       1 <0>        -0.1511
      2 C2          0.0021   -0.0041    0.0020 C.3       1 <0>         0.0595
      3 O1          0.6709   -0.4649   -1.1737 O.3       1 <0>        -0.3318
      4 C3          0.7759   -1.7986   -1.3348 C.2       1 <0>         0.5670
      5 O2          0.3121   -2.5497   -0.4998 O.2       1 <0>        -0.5209
      6 C4          1.4536   -2.3467   -2.5245 C.2       1 <0>        -0.0428
      7 C5          1.6262   -3.6838   -2.8167 C.2       1 <0>        -0.0090
      8 N1          2.2920   -3.7477   -3.9897 N.pl3     1 <0>        -0.2954
      9 C6          2.7352   -4.7896   -4.7607 C.2       1 <0>        -0.1679
     10 C7          3.3947   -4.5637   -5.9245 C.2       1 <0>         0.2163
     11 N2          3.6310   -3.3035   -6.3527 N.2       1 <0>        -0.6045
     12 C8          3.2361   -2.2572   -5.6670 C.2       1 <0>         0.5077
     13 C9          2.5214   -2.4585   -4.4060 C.2       1 <0>         0.1443
     14 N3          2.0076   -1.6313   -3.5197 N.2       1 <0>        -0.4033
     15 O3          3.4875   -1.0051   -6.1207 O.3       1 <0>        -0.6298
     16 C10         3.7604   -5.8593   -6.5554 C.ar      1 <0>        -0.0328
     17 C11         4.4365   -6.1462   -7.7425 C.ar      1 <0>        -0.0759
     18 C12         4.6532   -7.4580   -8.1100 C.ar      1 <0>        -0.1276
     19 C13         4.2030   -8.4912   -7.3075 C.ar      1 <0>        -0.1163
     20 C14         3.5319   -8.2135   -6.1293 C.ar      1 <0>        -0.1056
     21 C15         3.3119   -6.9059   -5.7551 C.ar      1 <0>        -0.0825
     22 C16         2.6308   -6.2842   -4.5618 C.3       1 <0>        -0.0003
     23 H1          1.0039    1.9031    0.0027 H         1 <0>         0.0673
     24 H2         -0.5459    1.8868   -0.8726 H         1 <0>         0.0672
     25 H3         -0.5289    1.8773    0.9072 H         1 <0>         0.0754
     26 H4          0.5293   -0.3651    0.8851 H         1 <0>         0.0648
     27 H5         -1.0205   -0.3814    0.0098 H         1 <0>         0.0648
     28 H6          1.2929   -4.5203   -2.2204 H         1 <0>         0.1866
     29 H7          4.7890   -5.3426   -8.3721 H         1 <0>         0.1305
     30 H8          5.1764   -7.6796   -9.0284 H         1 <0>         0.1240
     31 H9          4.3751   -9.5162   -7.6011 H         1 <0>         0.1234
     32 H10         3.1807   -9.0210   -5.5041 H         1 <0>         0.1229
     33 H11         3.1391   -6.5778   -3.6433 H         1 <0>         0.0879
     34 H12         1.5842   -6.5867   -4.5263 H         1 <0>         0.0878
@<TRIPOS>BOND
     1    1    2 1
     2    1   23 1
     3    1   24 1
     4    1   25 1
     5    2    3 1
     6    2   26 1
     7    2   27 1
     8    3    4 1
     9    4    5 2
    10    4    6 1
    11    6   14 1
    12    6    7 2
    13    7    8 1
    14    7   28 1
    15    8   13 1
    16    8    9 1
    17    9   22 1
    18    9   10 2
    19   10   11 1
    20   10   16 1
    21   11   12 2
    22   12   13 1
    23   12   15 1
    24   13   14 2
    25   16   21 ar
    26   16   17 ar
    27   17   18 ar
    28   17   29 1
    29   18   19 ar
    30   18   30 1
    31   19   20 ar
    32   19   31 1
    33   20   21 ar
    34   20   32 1
    35   21   22 1
    36   22   33 1
    37   22   34 1
@<TRIPOS>MOLECULE
CHEMBL14639__1
   35    38     0     0     0
SMALL
USER_CHARGES

@<TRIPOS>ATOM
      1 C1         -0.0187    1.5258    0.0104 C.3       1 <0>        -0.1529
      2 C2          0.0021   -0.0041    0.0020 C.3       1 <0>         0.0598
      3 O1          0.6932   -0.4774    1.1597 O.3       1 <0>        -0.3305
      4 C3          0.8011   -1.8128    1.3044 C.2       1 <0>         0.5607
      5 O2          0.3214   -2.5550    0.4704 O.2       1 <0>        -0.5006
      6 C4          1.5011   -2.3734    2.4747 C.2       1 <0>        -0.0236
      7 C5          1.6897   -3.7157    2.7451 C.2       1 <0>         0.0646
      8 N1          2.3732   -3.7890    3.9047 N.pl3     1 <0>        -0.3405
      9 C6          2.8350   -4.8591    4.6499 C.2       1 <0>        -0.0141
     10 C7          3.5058   -4.6747    5.7974 C.2       1 <0>         0.1692
     11 N2          3.7578   -3.3875    6.2749 N.am      1 <0>        -0.6293
     12 C8          3.3332   -2.3052    5.5941 C.2       1 <0>         0.6047
     13 C9          2.5970   -2.5054    4.3334 C.2       1 <0>         0.1414
     14 N3          2.0744   -1.6709    3.4653 N.2       1 <0>        -0.3576
     15 O3          3.5541   -1.1836    6.0120 O.2       1 <0>        -0.4729
     16 C10         3.8807   -5.9824    6.3862 C.ar      1 <0>        -0.0704
     17 C11         4.5754   -6.3031    7.5556 C.ar      1 <0>        -0.0812
     18 C12         4.7962   -7.6248    7.8818 C.ar      1 <0>        -0.1142
     19 C13         4.3339   -8.6350    7.0569 C.ar      1 <0>        -0.0937
     20 C14         3.6449   -8.3247    5.8968 C.ar      1 <0>        -0.0937
     21 C15         3.4194   -7.0081    5.5633 C.ar      1 <0>        -0.0695
     22 C16         2.7216   -6.3473    4.4014 C.3       1 <0>        -0.0231
     23 H1          1.0039    1.9031    0.0027 H         1 <0>         0.0683
     24 H2         -0.5459    1.8868   -0.8726 H         1 <0>         0.0813
     25 H3         -0.5289    1.8773    0.9072 H         1 <0>         0.0683
     26 H4         -1.0205   -0.3814    0.0098 H         1 <0>         0.0705
     27 H5          0.5123   -0.3556   -0.8948 H         1 <0>         0.0705
     28 H6          1.3535   -4.5467    2.1428 H         1 <0>         0.2103
     29 H7          4.9386   -5.5179    8.2021 H         1 <0>         0.1290
     30 H8          5.3331   -7.8726    8.7856 H         1 <0>         0.1348
     31 H9          4.5112   -9.6678    7.3184 H         1 <0>         0.1358
     32 H10         3.2851   -9.1145    5.2540 H         1 <0>         0.1357
     33 H11         1.6736   -6.6455    4.3725 H         1 <0>         0.1177
     34 H12         3.2150   -6.6116    3.4661 H         1 <0>         0.1176
     35 H13         4.2438   -3.2710    7.1062 H         1 <0>         0.4278
@<TRIPOS>BOND
     1    1    2 1
     2    1   23 1
     3    1   24 1
     4    1   25 1
     5    2    3 1
     6    2   26 1
     7    2   27 1
     8    3    4 1
     9    4    5 2
    10    4    6 1
    11    6   14 1
    12    6    7 2
    13    7    8 1
    14    7   28 1
    15    8   13 1
    16    8    9 1
    17    9   22 1
    18    9   10 2
    19   10   11 1
    20   10   16 1
    21   11   12 am
    22   11   35 1
    23   12   13 1
    24   12   15 2
    25   13   14 2
    26   16   21 ar
    27   16   17 ar
    28   17   18 ar
    29   17   29 1
    30   18   19 ar
    31   18   30 1
    32   19   20 ar
    33   19   31 1
    34   20   21 ar
    35   20   32 1
    36   21   22 1
    37   22   33 1
    38   22   34 1
@<TRIPOS>MOLECULE
CHEMBL299180
   28    27     0     0     0
SMALL
USER_CHARGES

@<TRIPOS>ATOM
      1 C1          0.1167    1.6488   -0.3186 C.3       1 <0>        -0.1376
      2 C2          0.1637    0.1207   -0.2585 C.3       1 <0>        -0.0882
      3 C3          1.0526   -0.3167    0.9075 C.3       1 <0>        -0.1398
      4 C4         -1.2296   -0.4172   -0.0572 C.2       1 <0>        -0.1012
      5 C5         -1.7183   -1.3312   -0.8947 C.2       1 <0>        -0.2231
      6 C6         -0.8326   -1.9305   -1.9564 C.3       1 <0>        -0.0740
      7 C7         -0.9783   -1.1313   -3.2530 C.3       1 <0>        -0.0356
      8 H1         -0.7840   -0.0774   -3.0539 H         1 <0>         0.1199
      9 C8          0.0096   -1.6406   -4.2707 C.2       1 <0>         0.4950
     10 O1         -0.3837   -2.2557   -5.2473 O.co2     1 <0>        -0.6801
     11 O2          1.2020   -1.4377   -4.1176 O.co2     1 <0>        -0.6492
     12 N1         -2.3428   -1.2878   -3.7740 N.4       1 <0>        -0.6016
     13 C9         -3.1187   -1.7540   -0.7831 C.2       1 <0>         0.5119
     14 O3         -3.8379   -1.2673    0.0791 O.co2     1 <0>        -0.6774
     15 O4         -3.5675   -2.5934   -1.5522 O.co2     1 <0>        -0.7034
     16 H2          1.1244    2.0378   -0.4642 H         1 <0>         0.0548
     17 H3         -0.5166    1.9604   -1.1493 H         1 <0>         0.0504
     18 H4         -0.2913    2.0368    0.6147 H         1 <0>         0.0537
     19 H5          0.5716   -0.2673   -1.1918 H         1 <0>         0.0862
     20 H6          1.0167   -1.4018    1.0046 H         1 <0>         0.0546
     21 H7          2.0792   -0.0025    0.7194 H         1 <0>         0.0541
     22 H8          0.6951    0.1426    1.8291 H         1 <0>         0.0528
     23 H9         -1.8320   -0.0619    0.7658 H         1 <0>         0.1195
     24 H10         0.2052   -1.8984   -1.6245 H         1 <0>         0.0990
     25 H11        -1.1259   -2.9654   -2.1327 H         1 <0>         0.0880
     26 H12        -2.5561   -2.2695   -3.8687 H         1 <0>         0.4356
     27 H13        -2.9976   -0.8614   -3.1356 H         1 <0>         0.4199
     28 H14        -2.4120   -0.8401   -4.6756 H         1 <0>         0.4159
@<TRIPOS>BOND
     1    1    2 1
     2    1   16 1
     3    1   17 1
     4    1   18 1
     5    2    3 1
     6    2    4 1
     7    2   19 1
     8    3   20 1
     9    3   21 1
    10    3   22 1
    11    4    5 2
    12    4   23 1
    13    5    6 1
    14    5   13 1
    15    6    7 1
    16    6   24 1
    17    6   25 1
    18    7    8 1
    19    7    9 1
    20    7   12 1
    21    9   10 2
    22    9   11 1
    23   12   26 1
    24   12   27 1
    25   12   28 1
    26   13   14 2
    27   13   15 1
@<TRIPOS>MOLECULE
CHEMBL60406
   25    24     0     0     0
SMALL
USER_CHARGES

@<TRIPOS>ATOM
      1 C1          1.4491    0.7472    0.8005 C.3       1 <0>        -0.0682
      2 C2          2.8938    0.4105    1.0658 C.2       1 <0>        -0.1047
      3 C3          3.3358    0.3436    2.2989 C.2       1 <0>        -0.1366
      4 Cl1         5.0001   -0.0441    2.6046 Cl        1 <0>        -0.1095
      5 C4          1.3704    1.9519   -0.1394 C.3       1 <0>        -0.1656
      6 H1          1.9391    2.7802    0.2832 H         1 <0>         0.0522
      7 C5         -0.0911    2.3712   -0.3099 C.3       1 <0>        -0.1010
      8 C6         -0.1593    3.6603   -1.1311 C.3       1 <0>        -0.0448
      9 H2          0.3732    3.5204   -2.0718 H         1 <0>         0.1370
     10 C7         -1.6000    3.9993   -1.4151 C.2       1 <0>         0.4955
     11 O1         -2.1178    4.9616   -0.8744 O.co2     1 <0>        -0.6895
     12 O2         -2.2478    3.3113   -2.1855 O.co2     1 <0>        -0.6365
     13 N1          0.4617    4.7560   -0.3751 N.4       1 <0>        -0.6095
     14 C8          1.9462    1.5804   -1.4816 C.2       1 <0>         0.4953
     15 O3          2.8888    2.2068   -1.9351 O.co2     1 <0>        -0.7015
     16 O4          1.4696    0.6533   -2.1139 O.co2     1 <0>        -0.6750
     17 H3          0.9559   -0.1076    0.3375 H         1 <0>         0.0925
     18 H4          0.9532    0.9871    1.7410 H         1 <0>         0.0606
     19 H5          3.5653    0.2244    0.2407 H         1 <0>         0.1246
     20 H6          2.6643    0.5298    3.1241 H         1 <0>         0.1413
     21 H7         -0.6376    1.5821   -0.8262 H         1 <0>         0.1119
     22 H8         -0.5371    2.5407    0.6702 H         1 <0>         0.0657
     23 H9          1.4263    4.5291   -0.1850 H         1 <0>         0.4179
     24 H10         0.4167    5.6062   -0.9167 H         1 <0>         0.4253
     25 H11        -0.0313    4.8855    0.4957 H         1 <0>         0.4227
@<TRIPOS>BOND
     1    1    2 1
     2    1    5 1
     3    1   17 1
     4    1   18 1
     5    2    3 2
     6    2   19 1
     7    3    4 1
     8    3   20 1
     9    5    6 1
    10    5    7 1
    11    5   14 1
    12    7    8 1
    13    7   21 1
    14    7   22 1
    15    8    9 1
    16    8   10 1
    17    8   13 1
    18   10   11 2
    19   10   12 1
    20   13   23 1
    21   13   24 1
    22   13   25 1
    23   14   15 2
    24   14   16 1
@<TRIPOS>MOLECULE
CHEMBL84142
   62    65     0     0     0
SMALL
USER_CHARGES

@<TRIPOS>ATOM
      1 C1          0.2647   -3.0643    2.2089 C.3       1 <0>        -0.1526
      2 C2         -0.0265   -2.2302    0.9597 C.3       1 <0>         0.0612
      3 O1          0.6852   -2.7748   -0.1533 O.3       1 <0>        -0.3493
      4 C3          0.5361   -2.1519   -1.3389 C.2       1 <0>         0.5136
      5 O2         -0.1787   -1.1731   -1.4252 O.2       1 <0>        -0.5112
      6 C4          1.2402   -2.6581   -2.5314 C.ar      1 <0>        -0.1562
      7 C5          2.0586   -3.7877   -2.4351 C.ar      1 <0>        -0.0373
      8 C6          2.7140   -4.2576   -3.5504 C.ar      1 <0>        -0.1378
      9 C7          2.5630   -3.6100   -4.7728 C.ar      1 <0>         0.2148
     10 C8          1.7497   -2.4852   -4.8722 C.ar      1 <0>        -0.1644
     11 C9          1.0867   -2.0131   -3.7623 C.ar      1 <0>        -0.0290
     12 N1          3.2283   -4.0888   -5.9003 N.am      1 <0>        -0.6875
     13 C10         3.4306   -5.4127   -6.0518 C.2       1 <0>         0.7030
     14 O3          2.9504   -6.1961   -5.2557 O.2       1 <0>        -0.5720
     15 N2          4.1653   -5.8681   -7.0859 N.am      1 <0>        -0.7310
     16 C11         4.3852   -7.3071   -7.2507 C.3       1 <0>         0.2162
     17 C12         5.2318   -7.5491   -8.4737 C.2       1 <0>        -0.1876
     18 C13         4.7614   -7.7476   -9.7873 C.2       1 <0>        -0.1710
     19 C14         5.8377   -7.9279  -10.5797 C.2       1 <0>         0.0013
     20 N3          6.9577   -7.8480   -9.8026 N.pl3     1 <0>        -0.4071
     21 C15         6.5785   -7.6096   -8.5126 C.2       1 <0>         0.0185
     22 C16         8.2783   -7.9831  -10.2551 C.ar      1 <0>         0.1834
     23 C17         8.7588   -7.1438  -11.2474 C.ar      1 <0>        -0.1151
     24 C18        10.0670   -7.2767  -11.6960 C.ar      1 <0>         0.2047
     25 C19        10.8935   -8.2580  -11.1438 C.ar      1 <0>         0.1117
     26 C20        10.4025   -9.0961  -10.1486 C.ar      1 <0>        -0.0569
     27 C21         9.1050   -8.9552   -9.7032 C.ar      1 <0>        -0.1918
     28 C22         8.5797   -9.8616   -8.6198 C.3       1 <0>         0.5180
     29 F1          9.5312  -10.8466   -8.3340 F         1 <0>        -0.1755
     30 F2          8.3246   -9.1112   -7.4670 F         1 <0>        -0.1715
     31 F3          7.3959  -10.4684   -9.0528 F         1 <0>        -0.1669
     32 N4         12.2073   -8.4054  -11.5819 N.am      1 <0>        -0.6314
     33 H1         12.7736   -9.0902  -11.1929 H         1 <0>         0.4219
     34 C23        12.6932   -7.5979  -12.5463 C.2       1 <0>         0.5167
     35 O4         13.8383   -7.7231  -12.9318 O.2       1 <0>        -0.4703
     36 C24        11.8106   -6.5501  -13.1352 C.2       1 <0>         0.5080
     37 O5         12.2297   -5.8129  -14.0048 O.2       1 <0>        -0.4544
     38 N5         10.5424   -6.4297  -12.6932 N.am      1 <0>        -0.4917
     39 C25         9.6635   -5.4054  -13.2631 C.3       1 <0>         0.0198
     40 C26         9.7953   -4.1318  -12.4685 C.2       1 <0>         0.4874
     41 O6         10.5531   -4.0840  -11.5146 O.co2     1 <0>        -0.6765
     42 O7          9.1441   -3.1491  -12.7795 O.co2     1 <0>        -0.6814
     43 H2         -0.0546   -4.0930    2.0415 H         1 <0>         0.0672
     44 H3          1.3345   -3.0454    2.4171 H         1 <0>         0.0672
     45 H4         -0.2781   -2.6489    3.0579 H         1 <0>         0.0790
     46 H5         -1.0963   -2.2492    0.7515 H         1 <0>         0.0675
     47 H6          0.2929   -1.2016    1.1271 H         1 <0>         0.0676
     48 H7          2.1765   -4.2906   -1.4867 H         1 <0>         0.1404
     49 H8          3.3465   -5.1299   -3.4767 H         1 <0>         0.1462
     50 H9          1.6351   -1.9849   -5.8224 H         1 <0>         0.1372
     51 H10         0.4521   -1.1427   -3.8412 H         1 <0>         0.1407
     52 H11         3.5457   -3.4692   -6.5757 H         1 <0>         0.4124
     53 H12         4.5485   -5.2430   -7.7211 H         1 <0>         0.4026
     54 H13         4.8963   -7.6995   -6.3715 H         1 <0>         0.0727
     55 H14         3.4254   -7.8102   -7.3678 H         1 <0>         0.0758
     56 H15         3.7282   -7.7544  -10.1017 H         1 <0>         0.1425
     57 H16         5.8173   -8.1053  -11.6448 H         1 <0>         0.1673
     58 H17         7.2423   -7.4925   -7.6688 H         1 <0>         0.1759
     59 H18         8.1164   -6.3868  -11.6723 H         1 <0>         0.1600
     60 H19        11.0397   -9.8559   -9.7209 H         1 <0>         0.1593
     61 H20         9.9472   -5.2186  -14.2988 H         1 <0>         0.1028
     62 H21         8.6306   -5.7515  -13.2261 H         1 <0>         0.0930
@<TRIPOS>BOND
     1    1    2 1
     2    1   43 1
     3    1   44 1
     4    1   45 1
     5    2    3 1
     6    2   46 1
     7    2   47 1
     8    3    4 1
     9    4    5 2
    10    4    6 1
    11    6   11 ar
    12    6    7 ar
    13    7    8 ar
    14    7   48 1
    15    8    9 ar
    16    8   49 1
    17    9   10 ar
    18    9   12 1
    19   10   11 ar
    20   10   50 1
    21   11   51 1
    22   12   13 am
    23   12   52 1
    24   13   14 2
    25   13   15 am
    26   15   16 1
    27   15   53 1
    28   16   17 1
    29   16   54 1
    30   16   55 1
    31   17   21 2
    32   17   18 1
    33   18   19 2
    34   18   56 1
    35   19   20 1
    36   19   57 1
    37   20   21 1
    38   20   22 1
    39   21   58 1
    40   22   27 ar
    41   22   23 ar
    42   23   24 ar
    43   23   59 1
    44   24   38 1
    45   24   25 ar
    46   25   26 ar
    47   25   32 1
    48   26   27 ar
    49   26   60 1
    50   27   28 1
    51   28   29 1
    52   28   30 1
    53   28   31 1
    54   32   33 1
    55   32   34 am
    56   34   35 2
    57   34   36 1
    58   36   37 2
    59   36   38 am
    60   38   39 1
    61   39   40 1
    62   39   61 1
    63   39   62 1
    64   40   41 2
    65   40   42 1
@<TRIPOS>MOLECULE
CHEMBL293206
   32    34     0     0     0
SMALL
USER_CHARGES

@<TRIPOS>ATOM
      1 C1         -0.0178    1.4648    0.0101 C.3       1 <0>         0.0204
      2 N1          0.0021   -0.0041    0.0020 N.3       1 <0>        -0.5346
      3 C2         -1.3633   -0.5497   -0.0586 C.3       1 <0>         0.0446
      4 C3         -1.2783   -2.0304   -0.4297 C.3       1 <0>        -0.0921
      5 C4         -0.2918   -2.7310    0.4697 C.ar      1 <0>         0.0165
      6 C5         -0.3309   -4.1183    0.5388 C.ar      1 <0>        -0.0427
      7 C6          0.5515   -4.8065    1.3424 C.ar      1 <0>        -0.0501
      8 C7          1.4925   -4.1100    2.0927 C.ar      1 <0>         0.1167
      9 C8          1.5323   -2.7181    2.0262 C.ar      1 <0>         0.1797
     10 C9          0.6325   -2.0307    1.2106 C.ar      1 <0>        -0.0844
     11 C10         0.7048   -0.5265    1.1780 C.3       1 <0>         0.0898
     12 N2          2.4650   -1.9990    2.7689 N.am      1 <0>        -0.6342
     13 C11         3.3415   -2.6480    3.5620 C.2       1 <0>         0.5118
     14 C12         3.2990   -4.1372    3.6328 C.2       1 <0>         0.5118
     15 N3          2.3845   -4.8075    2.9025 N.am      1 <0>        -0.6305
     16 O1          4.0802   -4.7403    4.3409 O.2       1 <0>        -0.4510
     17 O2          4.1577   -2.0260    4.2119 O.2       1 <0>        -0.4464
     18 N4         -1.3307   -4.8639   -0.2584 N.pl3     1 <0>         0.0394
     19 O3         -1.3699   -6.0710   -0.2027 O.2       1 <0>        -0.1570
     20 O4         -2.1081   -4.2658   -0.9653 O.3       1 <0>        -0.1481
     21 H1          1.0047    1.8421    0.0024 H         1 <0>         0.0740
     22 H2         -0.5450    1.8259   -0.8730 H         1 <0>         0.0790
     23 H3         -0.5280    1.8163    0.9069 H         1 <0>         0.0325
     24 H4         -1.8439   -0.4429    0.9139 H         1 <0>         0.0461
     25 H5         -1.9380   -0.0151   -0.8149 H         1 <0>         0.0952
     26 H6         -2.2606   -2.4889   -0.3159 H         1 <0>         0.1187
     27 H7         -0.9541   -2.1256   -1.4660 H         1 <0>         0.1077
     28 H8          0.5123   -5.8847    1.3898 H         1 <0>         0.1712
     29 H9          1.7494   -0.2175    1.1396 H         1 <0>         0.0952
     30 H10         0.2443   -0.1244    2.0804 H         1 <0>         0.0642
     31 H11         2.3479   -5.7760    2.9419 H         1 <0>         0.4298
     32 H12         2.4844   -1.0306    2.7156 H         1 <0>         0.4269
@<TRIPOS>BOND
     1    1    2 1
     2    1   21 1
     3    1   22 1
     4    1   23 1
     5    2   11 1
     6    2    3 1
     7    3    4 1
     8    3   24 1
     9    3   25 1
    10    4    5 1
    11    4   26 1
    12    4   27 1
    13    5   10 ar
    14    5    6 ar
    15    6    7 ar
    16    6   18 1
    17    7    8 ar
    18    7   28 1
    19    8   15 1
    20    8    9 ar
    21    9   10 ar
    22    9   12 1
    23   10   11 1
    24   11   29 1
    25   11   30 1
    26   12   13 am
    27   12   32 1
    28   13   14 1
    29   13   17 2
    30   14   15 am
    31   14   16 2
    32   15   31 1
    33   18   19 2
    34   18   20 1
@<TRIPOS>MOLECULE
CHEMBL333463
   32    34     0     0     0
SMALL
USER_CHARGES

@<TRIPOS>ATOM
      1 C1          0.7095    1.2596   -0.7069 C.3       1 <0>         0.0221
      2 N1          0.5519   -0.1879   -0.5126 N.3       1 <0>        -0.5381
      3 C2         -0.8565   -0.5893   -0.6576 C.3       1 <0>         0.0480
      4 C3         -0.9140   -2.1094   -0.8118 C.3       1 <0>        -0.0816
      5 C4         -0.1136   -2.7685    0.2821 C.ar      1 <0>        -0.0656
      6 C5          0.8097   -2.0685    1.0253 C.ar      1 <0>        -0.0036
      7 C6          1.5315   -2.7153    2.0211 C.ar      1 <0>        -0.0285
      8 C7          1.3307   -4.0541    2.2777 C.ar      1 <0>        -0.0589
      9 C8          0.3979   -4.7694    1.5358 C.ar      1 <0>         0.1246
     10 C9         -0.3262   -4.1235    0.5342 C.ar      1 <0>         0.1687
     11 N2         -1.2654   -4.8198   -0.2220 N.am      1 <0>        -0.6327
     12 C10        -1.4820   -6.1304    0.0105 C.2       1 <0>         0.5115
     13 C11        -0.7071   -6.8208    1.0817 C.2       1 <0>         0.5117
     14 N3          0.1964   -6.1215    1.7983 N.am      1 <0>        -0.6310
     15 O1         -0.8882   -8.0006    1.3066 O.2       1 <0>        -0.4510
     16 O2         -2.2999   -6.7427   -0.6463 O.2       1 <0>        -0.4476
     17 N4          2.5265   -1.9585    2.8138 N.pl3     1 <0>         0.0306
     18 O3          3.5610   -2.4871    3.1487 O.2       1 <0>        -0.1420
     19 O4          2.3047   -0.8119    3.1264 O.3       1 <0>        -0.1441
     20 C12         1.0648   -0.6011    0.7973 C.3       1 <0>         0.0837
     21 H1          1.7659    1.5214   -0.6468 H         1 <0>         0.0754
     22 H2          0.3210    1.5391   -1.6863 H         1 <0>         0.0771
     23 H3          0.1585    1.7924    0.0681 H         1 <0>         0.0349
     24 H4         -1.4159   -0.2897    0.2286 H         1 <0>         0.0493
     25 H5         -1.2833   -0.1151   -1.5414 H         1 <0>         0.0942
     26 H6         -1.9508   -2.4402   -0.7511 H         1 <0>         0.0888
     27 H7         -0.5023   -2.3905   -1.7811 H         1 <0>         0.1018
     28 H8          1.8975   -4.5470    3.0538 H         1 <0>         0.1664
     29 H9          2.1374   -0.4116    0.8397 H         1 <0>         0.0986
     30 H10         0.5672   -0.0242    1.5768 H         1 <0>         0.0805
     31 H11        -1.7645   -4.3619   -0.9163 H         1 <0>         0.4278
     32 H12         0.7061   -6.5610    2.4969 H         1 <0>         0.4292
@<TRIPOS>BOND
     1    1    2 1
     2    1   21 1
     3    1   22 1
     4    1   23 1
     5    2   20 1
     6    2    3 1
     7    3    4 1
     8    3   24 1
     9    3   25 1
    10    4    5 1
    11    4   26 1
    12    4   27 1
    13    5   10 ar
    14    5    6 ar
    15    6    7 ar
    16    6   20 1
    17    7    8 ar
    18    7   17 1
    19    8    9 ar
    20    8   28 1
    21    9   14 1
    22    9   10 ar
    23   10   11 1
    24   11   12 am
    25   11   31 1
    26   12   13 1
    27   12   16 2
    28   13   14 am
    29   13   15 2
    30   14   32 1
    31   17   18 2
    32   17   19 1
    33   20   29 1
    34   20   30 1
@<TRIPOS>MOLECULE
CHEMBL288166
   21    20     0     0     0
SMALL
USER_CHARGES

@<TRIPOS>ATOM
      1 C1          0.0713   -0.2098    1.8253 C.3       1 <0>        -0.1188
      2 C2         -0.2638   -0.0520    0.3408 C.3       1 <0>        -0.1744
      3 H1         -0.2683    1.0063    0.0798 H         1 <0>         0.0495
      4 C3         -1.6437   -0.6517    0.0629 C.3       1 <0>        -0.0949
      5 C4         -2.0504   -0.3483   -1.3805 C.3       1 <0>        -0.0589
      6 H2         -1.2916   -0.7351   -2.0608 H         1 <0>         0.1697
      7 C5         -3.3737   -1.0050   -1.6783 C.2       1 <0>         0.4940
      8 O1         -4.3725   -0.3225   -1.8296 O.co2     1 <0>        -0.6948
      9 O2         -3.4454   -2.2188   -1.7677 O.co2     1 <0>        -0.6442
     10 N1         -2.1735    1.1046   -1.5594 N.4       1 <0>        -0.6052
     11 C6          0.7715   -0.7691   -0.4869 C.2       1 <0>         0.4948
     12 O3          1.6921   -1.3522    0.0599 O.co2     1 <0>        -0.6810
     13 O4          0.6886   -0.7660   -1.7033 O.co2     1 <0>        -0.6985
     14 H3          1.0541    0.2178    2.0233 H         1 <0>         0.0544
     15 H4         -0.6778    0.3084    2.4239 H         1 <0>         0.0343
     16 H5          0.0763   -1.2682    2.0861 H         1 <0>         0.0577
     17 H6         -1.6073   -1.7310    0.2108 H         1 <0>         0.0978
     18 H7         -2.3734   -0.2159    0.7452 H         1 <0>         0.0619
     19 H8         -1.2667    1.5344   -1.4546 H         1 <0>         0.4159
     20 H9         -2.5341    1.3006   -2.4812 H         1 <0>         0.4242
     21 H10        -2.8043    1.4767   -0.8654 H         1 <0>         0.4165
@<TRIPOS>BOND
     1    1    2 1
     2    1   14 1
     3    1   15 1
     4    1   16 1
     5    2    3 1
     6    2    4 1
     7    2   11 1
     8    4    5 1
     9    4   17 1
    10    4   18 1
    11    5    6 1
    12    5    7 1
    13    5   10 1
    14    7    8 2
    15    7    9 1
    16   10   19 1
    17   10   20 1
    18   10   21 1
    19   11   12 2
    20   11   13 1
@<TRIPOS>MOLECULE
CHEMBL59551
   23    22     0     0     0
SMALL
USER_CHARGES

@<TRIPOS>ATOM
      1 C1          0.0074   -1.1819   -0.2088 C.1       1 <0>        -0.2433
      2 C2         -0.0072   -0.0095   -0.1508 C.1       1 <0>        -0.1377
      3 C3         -0.0255    1.4606   -0.0782 C.3       1 <0>         0.0117
      4 C4          1.4102    1.9894   -0.0834 C.3       1 <0>        -0.1673
      5 H1          1.9727    1.5214    0.7244 H         1 <0>         0.0539
      6 C5          1.3958    3.5061    0.1173 C.3       1 <0>        -0.0924
      7 C6          2.8277    4.0084    0.3127 C.3       1 <0>        -0.0640
      8 H2          3.4357    3.7146   -0.5430 H         1 <0>         0.1805
      9 C7          2.8213    5.5106    0.4323 C.2       1 <0>         0.4946
     10 O1          3.0711    6.0380    1.5028 O.co2     1 <0>        -0.6970
     11 O2          2.5662    6.1986   -0.5414 O.co2     1 <0>        -0.6422
     12 N1          3.3895    3.4221    1.5369 N.4       1 <0>        -0.6087
     13 C8          2.0608    1.6635   -1.4031 C.2       1 <0>         0.4918
     14 O3          2.9916    2.3394   -1.8073 O.co2     1 <0>        -0.6868
     15 O4          1.6564    0.7240   -2.0666 O.co2     1 <0>        -0.6700
     16 H3          0.0205   -2.2306   -0.2606 H         1 <0>         0.2070
     17 H4         -0.5630    1.8602   -0.9382 H         1 <0>         0.0849
     18 H5         -0.5244    1.7729    0.8392 H         1 <0>         0.0704
     19 H6          0.9594    3.9846   -0.7595 H         1 <0>         0.1010
     20 H7          0.8017    3.7505    0.9979 H         1 <0>         0.0604
     21 H8          2.8267    3.6940    2.3290 H         1 <0>         0.4174
     22 H9          3.3938    2.4163    1.4568 H         1 <0>         0.4119
     23 H10         4.3339    3.7533    1.6658 H         1 <0>         0.4237
@<TRIPOS>BOND
     1    1    2 3
     2    1   16 1
     3    2    3 1
     4    3    4 1
     5    3   17 1
     6    3   18 1
     7    4    5 1
     8    4    6 1
     9    4   13 1
    10    6    7 1
    11    6   19 1
    12    6   20 1
    13    7    8 1
    14    7    9 1
    15    7   12 1
    16    9   10 2
    17    9   11 1
    18   12   21 1
    19   12   22 1
    20   12   23 1
    21   13   14 2
    22   13   15 1
