@<TRIPOS>MOLECULE
ZINC01208863
   30    31     0     0     0
SMALL
USER_CHARGES
2,4-bis(hydroxymethyl)-6,8-dimethyl-2,4,6,8-tetrazabicyclo[3.3.0]octane-3,7-dione
@<TRIPOS>ATOM
      1 C1         -2.5492    4.8925   -0.9474 C.3       1 <0>         0.1142
      2 N1         -1.1796    4.6082   -0.5121 N.am      1 <0>        -0.6426
      3 C2         -0.6845    3.3787    0.1097 C.3       1 <0>         0.3065
      4 H1         -0.6629    3.4211    1.1987 H         1 <0>         0.1267
      5 C3          0.7343    3.4020   -0.5912 C.3       1 <0>         0.3321
      6 H2          0.4907    3.3282   -1.6510 H         1 <0>         0.0533
      7 N2          1.0697    4.7566   -0.4579 N.am      1 <0>        -0.6114
      8 C4         -0.0955    5.4341   -0.6009 C.2       1 <0>         0.7242
      9 O1         -0.1690    6.6335   -0.7865 O.2       1 <0>        -0.5339
     10 C5          2.3915    5.3304   -0.1939 C.3       1 <0>         0.1093
     11 N3          1.1904    2.1048   -0.3008 N.am      1 <0>        -0.6085
     12 C6          0.0657    1.3239   -0.4360 C.2       1 <0>         0.7296
     13 O2          0.0881    0.1144   -0.5587 O.2       1 <0>        -0.5105
     14 N4         -1.0790    2.0698   -0.4219 N.am      1 <0>        -0.6256
     15 C7         -2.4169    1.6493   -0.8455 C.3       1 <0>         0.3345
     16 O3         -2.9839    0.7929    0.1481 O.3       1 <0>        -0.5854
     17 C8          2.5458    1.6829    0.0611 C.3       1 <0>         0.3339
     18 O4          3.1562    1.0324   -1.0553 O.3       1 <0>        -0.5830
     19 H3         -3.2535    4.4191   -0.2633 H         1 <0>         0.0752
     20 H4         -2.7134    5.9701   -0.9496 H         1 <0>         0.0874
     21 H5         -2.6997    4.5000   -1.9530 H         1 <0>         0.0589
     22 H6          2.8972    5.5281   -1.1391 H         1 <0>         0.0668
     23 H7          2.2789    6.2625    0.3598 H         1 <0>         0.0839
     24 H8          2.9819    4.6276    0.3940 H         1 <0>         0.0726
     25 H9         -3.0504    2.5272   -0.9728 H         1 <0>         0.0778
     26 H10        -2.3465    1.1119   -1.7911 H         1 <0>         0.0717
     27 H11        -3.8717    0.4755   -0.0665 H         1 <0>         0.3964
     28 H12         3.1358    2.5559    0.3400 H         1 <0>         0.0752
     29 H13         2.4987    0.9921    0.9029 H         1 <0>         0.0733
     30 H14         4.0577    0.7257   -0.8871 H         1 <0>         0.3971
@<TRIPOS>BOND
     1    1    2 1
     2    1   19 1
     3    1   20 1
     4    1   21 1
     5    2    8 am
     6    2    3 1
     7    3    4 1
     8    3   14 1
     9    3    5 1
    10    5    6 1
    11    5    7 1
    12    5   11 1
    13    7    8 am
    14    7   10 1
    15    8    9 2
    16   10   22 1
    17   10   23 1
    18   10   24 1
    19   11   12 am
    20   11   17 1
    21   12   13 2
    22   12   14 am
    23   14   15 1
    24   15   16 1
    25   15   25 1
    26   15   26 1
    27   16   27 1
    28   17   18 1
    29   17   28 1
    30   17   29 1
    31   18   30 1
@<TRIPOS>MOLECULE
ZINC20932207
   32    33     0     0     0
SMALL
USER_CHARGES
5-methyl-4-[(4-methylamino-3-nitro-phenyl)methyleneamino]-1,2,4-triazole-3-thiol
@<TRIPOS>ATOM
      1 C1         -2.4861    4.7584    2.4535 C.3       1 <0>        -0.0775
      2 C2         -2.8259    4.9841    1.0028 C.2       1 <0>         0.2506
      3 N1         -3.8203    5.6910    0.5429 N.2       1 <0>        -0.2910
      4 N2         -3.8183    5.6743   -0.7421 N.pl3     1 <0>        -0.3949
      5 C3         -2.8107    4.9537   -1.1787 C.2       1 <0>         0.4488
      6 N3         -2.1472    4.4851   -0.0772 N.pl3     1 <0>        -0.3535
      7 N4         -1.0079    3.6700   -0.0582 N.2       1 <0>        -0.2416
      8 C4         -1.1343    2.3783   -0.0382 C.2       1 <0>         0.2240
      9 C5          0.0641    1.5210   -0.0183 C.ar      1 <0>        -0.1476
     10 C6          1.3380    2.0970   -0.0268 C.ar      1 <0>         0.0375
     11 C7          2.4555    1.2927   -0.0129 C.ar      1 <0>        -0.2120
     12 C8          2.3181   -0.0917    0.0081 C.ar      1 <0>         0.3155
     13 C9          1.0524   -0.6684    0.0161 C.ar      1 <0>        -0.1385
     14 C10        -0.0700    0.1299    0.0033 C.ar      1 <0>         0.0479
     15 N5          0.9114   -2.1417    0.0390 N.pl3     1 <0>         0.0565
     16 O1         -0.1907   -2.6462    0.1594 O.2       1 <0>        -0.1399
     17 O2          1.8974   -2.8495   -0.0626 O.3       1 <0>        -0.2052
     18 N6          3.4518   -0.9028    0.0216 N.pl3     1 <0>        -0.7199
     19 C11         4.7819   -0.3006    0.1415 C.3       1 <0>         0.0700
     20 S1         -2.3940    4.6461   -2.8628 S.2       1 <0>        -0.6199
     21 H1         -3.2136    5.2870    3.0870 H         1 <0>         0.1095
     22 H2         -1.4755    5.1420    2.6573 H         1 <0>         0.1005
     23 H3         -2.5211    3.6815    2.6750 H         1 <0>         0.0921
     24 H4         -2.1359    1.9237   -0.0361 H         1 <0>         0.1398
     25 H5          1.4454    3.1715   -0.0434 H         1 <0>         0.1545
     26 H6          3.4399    1.7369   -0.0187 H         1 <0>         0.1529
     27 H7         -1.0525   -0.3185    0.0103 H         1 <0>         0.1618
     28 H8          3.3477   -1.9950   -0.0578 H         1 <0>         0.4476
     29 H9          5.5451   -1.0928    0.1341 H         1 <0>         0.0892
     30 H10         4.8461    0.2616    1.0848 H         1 <0>         0.0652
     31 H11         4.9532    0.3815   -0.7043 H         1 <0>         0.0661
     32 H12        -4.5942    6.2186   -1.3004 H         1 <0>         0.5115
@<TRIPOS>BOND
     1    1    2 1
     2    1   21 1
     3    1   22 1
     4    1   23 1
     5    2    6 1
     6    2    3 2
     7    3    4 1
     8    4    5 1
     9    4   32 1
    10    5    6 1
    11    5   20 2
    12    6    7 1
    13    7    8 2
    14    8    9 1
    15    8   24 1
    16    9   14 ar
    17    9   10 ar
    18   10   11 ar
    19   10   25 1
    20   11   12 ar
    21   11   26 1
    22   12   13 ar
    23   12   18 1
    24   13   14 ar
    25   13   15 1
    26   14   27 1
    27   15   16 2
    28   15   17 1
    29   18   19 1
    30   18   28 1
    31   19   29 1
    32   19   30 1
    33   19   31 1
@<TRIPOS>MOLECULE
ZINC40329206
   37    38     0     0     0
SMALL
USER_CHARGES

@<TRIPOS>ATOM
      1 C1         -0.0178    1.4608    0.0101 C.3       1 <0>         0.0765
      2 N1          0.0021   -0.0041    0.0020 N.am      1 <0>        -0.6023
      3 C2          0.0241   -0.7433    1.2666 C.3       1 <0>         0.1040
      4 C3         -1.3889   -1.0161    1.7137 C.2       1 <0>         0.5133
      5 O1         -2.3225   -0.6310    1.0421 O.2       1 <0>        -0.5308
      6 N2         -1.6152   -1.6881    2.8599 N.am      1 <0>        -0.6208
      7 C4         -0.5814   -2.2039    3.7691 C.3       1 <0>         0.0950
      8 C5         -1.3065   -2.9207    4.9277 C.3       1 <0>        -0.1322
      9 C6         -2.6910   -3.2593    4.3146 C.3       1 <0>        -0.1351
     10 C7         -2.9405   -2.0221    3.4128 C.3       1 <0>         0.1045
     11 C8          0.0001   -0.6716   -1.1688 C.2       1 <0>         0.5082
     12 O2          0.0165   -1.8843   -1.1755 O.2       1 <0>        -0.5017
     13 C9         -0.0226    0.0888   -2.4697 C.3       1 <0>         0.1220
     14 N3         -0.0203   -0.8571   -3.5884 N.pl3     1 <0>        -0.3740
     15 C10        -0.9077   -0.9135   -4.5954 C.2       1 <0>         0.2824
     16 N4         -0.5620   -1.8937   -5.3909 N.2       1 <0>        -0.5693
     17 C11         0.5413   -2.4866   -4.9246 C.2       1 <0>         0.4690
     18 N5          0.9134   -1.8796   -3.8225 N.2       1 <0>        -0.3444
     19 N6          1.1941   -3.5695   -5.5163 N.pl3     1 <0>        -0.8264
     20 H1          1.0048    1.8381    0.0023 H         1 <0>         0.0658
     21 H2         -0.5450    1.8219   -0.8730 H         1 <0>         0.0755
     22 H3         -0.5280    1.8123    0.9069 H         1 <0>         0.0767
     23 H4          0.5496   -1.6879    1.1262 H         1 <0>         0.1149
     24 H5          0.5371   -0.1514    2.0246 H         1 <0>         0.1108
     25 H6          0.0593   -2.9093    3.2399 H         1 <0>         0.0721
     26 H7          0.0147   -1.3788    4.1589 H         1 <0>         0.0717
     27 H8         -0.7767   -3.8305    5.2100 H         1 <0>         0.0855
     28 H9         -1.4162   -2.2555    5.7842 H         1 <0>         0.0792
     29 H10        -2.6435   -4.1743    3.7241 H         1 <0>         0.0777
     30 H11        -3.4534   -3.3357    5.0899 H         1 <0>         0.0869
     31 H12        -3.3256   -1.1908    4.0033 H         1 <0>         0.0698
     32 H13        -3.6343   -2.2719    2.6102 H         1 <0>         0.0782
     33 H14        -0.9215    0.7036   -2.5156 H         1 <0>         0.1318
     34 H15         0.8582    0.7278   -2.5324 H         1 <0>         0.1186
     35 H16        -1.7596   -0.2626   -4.7259 H         1 <0>         0.2203
     36 H17         0.8495   -3.9538   -6.3375 H         1 <0>         0.4135
     37 H18         1.9924   -3.9376   -5.1062 H         1 <0>         0.4130
@<TRIPOS>BOND
     1    1    2 1
     2    1   20 1
     3    1   21 1
     4    1   22 1
     5    2    3 1
     6    2   11 am
     7    3    4 1
     8    3   23 1
     9    3   24 1
    10    4    5 2
    11    4    6 am
    12    6   10 1
    13    6    7 1
    14    7    8 1
    15    7   25 1
    16    7   26 1
    17    8    9 1
    18    8   27 1
    19    8   28 1
    20    9   10 1
    21    9   29 1
    22    9   30 1
    23   10   31 1
    24   10   32 1
    25   11   12 2
    26   11   13 1
    27   13   14 1
    28   13   33 1
    29   13   34 1
    30   14   18 1
    31   14   15 1
    32   15   16 2
    33   15   35 1
    34   16   17 1
    35   17   18 2
    36   17   19 1
    37   19   36 1
    38   19   37 1
@<TRIPOS>MOLECULE
ZINC48798622
   31    32     0     0     0
SMALL
USER_CHARGES

@<TRIPOS>ATOM
      1 C1         -0.0178    1.4608    0.0101 C.3       1 <0>         0.0781
      2 N1          0.0021   -0.0041    0.0020 N.pl3     1 <0>        -0.9958
      3 C2          0.0241   -0.7433    1.2666 C.3       1 <0>         0.0866
      4 S1         -0.0004   -0.8243   -1.4366 S.o2      1 <0>         2.7158
      5 O1         -0.5312   -2.1147   -1.1675 O.2       1 <0>        -0.9233
      6 O2         -0.5723    0.0488   -2.4009 O.2       1 <0>        -0.9297
      7 C3          1.6818   -1.0594   -1.9051 C.2       1 <0>        -0.5492
      8 C4          2.4497   -2.1212   -1.5748 C.2       1 <0>        -0.0951
      9 C5          3.7138   -1.9109   -2.1475 C.2       1 <0>        -0.1285
     10 C6          3.6525   -0.7164   -2.8065 C.2       1 <0>        -0.0269
     11 O3          2.4084   -0.2179   -2.6521 O.3       1 <0>        -0.1076
     12 C7          4.7454   -0.0887   -3.5558 C.2       1 <0>         0.6138
     13 O4          5.8280   -0.6399   -3.6294 O.2       1 <0>        -0.4791
     14 N2          4.5511    1.0987   -4.1632 N.am      1 <0>        -0.6230
     15 C8          5.5951    1.6984   -4.8790 C.2       1 <0>         0.2955
     16 C9          6.8865    1.1737   -5.0492 C.2       1 <0>        -0.2690
     17 C10         7.5943    2.0487   -5.7991 C.2       1 <0>         0.0734
     18 N3          6.7866    3.0888   -6.0946 N.pl3     1 <0>        -0.4646
     19 H1          7.0287    3.8665   -6.6213 H         1 <0>         0.4456
     20 N4          5.5358    2.8461   -5.5126 N.2       1 <0>        -0.3124
     21 H2          1.0048    1.8381    0.0023 H         1 <0>         0.0593
     22 H3         -0.5450    1.8219   -0.8730 H         1 <0>         0.0883
     23 H4         -0.5280    1.8123    0.9069 H         1 <0>         0.0851
     24 H5         -0.9979   -0.9406    1.5900 H         1 <0>         0.0688
     25 H6          0.5496   -1.6879    1.1262 H         1 <0>         0.0742
     26 H7          0.5371   -0.1514    2.0246 H         1 <0>         0.0793
     27 H8          2.1476   -2.9714   -0.9813 H         1 <0>         0.1793
     28 H9          4.5693   -2.5666   -2.0797 H         1 <0>         0.1781
     29 H10         3.6882    1.5380   -4.1045 H         1 <0>         0.4241
     30 H11         7.2501    0.2378   -4.6514 H         1 <0>         0.1736
     31 H12         8.6234    1.9354   -6.1065 H         1 <0>         0.1850
@<TRIPOS>BOND
     1    1    2 1
     2    1   21 1
     3    1   22 1
     4    1   23 1
     5    2    3 1
     6    2    4 1
     7    3   24 1
     8    3   25 1
     9    3   26 1
    10    4    5 2
    11    4    6 2
    12    4    7 1
    13    7   11 1
    14    7    8 2
    15    8    9 1
    16    8   27 1
    17    9   10 2
    18    9   28 1
    19   10   11 1
    20   10   12 1
    21   12   13 2
    22   12   14 am
    23   14   15 1
    24   14   29 1
    25   15   20 2
    26   15   16 1
    27   16   17 2
    28   16   30 1
    29   17   18 1
    30   17   31 1
    31   18   19 1
    32   18   20 1
@<TRIPOS>MOLECULE
ZINC54404593
   24    26     0     0     0
SMALL
USER_CHARGES

@<TRIPOS>ATOM
      1 C1         -0.0184    1.5028    0.0103 C.3       1 <0>        -0.0611
      2 C2          0.0021   -0.0041    0.0020 C.2       1 <0>         0.2636
      3 N1          0.0079   -0.7696   -1.0904 N.2       1 <0>        -0.5791
      4 C3          0.0266   -2.0387   -0.7440 C.2       1 <0>         0.5630
      5 N2          0.0330   -2.0959    0.6150 N.pl3     1 <0>        -0.3659
      6 N3          0.0225   -0.7649    1.0630 N.2       1 <0>        -0.2871
      7 C4          0.0515   -3.2440    1.4039 C.ar      1 <0>         0.4994
      8 C5          0.0502   -3.1528    2.8043 C.ar      1 <0>        -0.0490
      9 C6          0.0689   -4.3469    3.5477 C.ar      1 <0>         0.2948
     10 N4          0.0632   -3.9706    4.8672 N.pl3     1 <0>        -0.5779
     11 C7          0.0419   -2.6084    4.9035 C.2       1 <0>         0.2706
     12 N5          0.0344   -2.1306    3.6928 N.2       1 <0>        -0.4354
     13 N6          0.0869   -5.5078    2.9031 N.ar      1 <0>        -0.5242
     14 C8          0.0874   -5.5438    1.5871 C.ar      1 <0>         0.3557
     15 N7          0.0651   -4.4497    0.8481 N.ar      1 <0>        -0.5691
     16 N8          0.0373   -3.1191   -1.6056 N.pl3     1 <0>        -0.8033
     17 H1          1.0042    1.8801    0.0026 H         1 <0>         0.0887
     18 H2         -0.5455    1.8639   -0.8728 H         1 <0>         0.0897
     19 H3         -0.5286    1.8543    0.9071 H         1 <0>         0.0870
     20 H4          0.0328   -2.0129    5.8044 H         1 <0>         0.2342
     21 H5          0.1023   -6.5043    1.0934 H         1 <0>         0.2197
     22 H6          0.0314   -2.9745   -2.5648 H         1 <0>         0.4231
     23 H7          0.0507   -4.0219   -1.2513 H         1 <0>         0.4269
     24 H8          0.0725   -4.5651    5.6336 H         1 <0>         0.4358
@<TRIPOS>BOND
     1    1    2 1
     2    1   17 1
     3    1   18 1
     4    1   19 1
     5    2    6 2
     6    2    3 1
     7    3    4 2
     8    4    5 1
     9    4   16 1
    10    5    6 1
    11    5    7 1
    12    7   15 ar
    13    7    8 ar
    14    8   12 1
    15    8    9 ar
    16    9   10 1
    17    9   13 ar
    18   10   11 1
    19   10   24 1
    20   11   12 2
    21   11   20 1
    22   13   14 ar
    23   14   15 ar
    24   14   21 1
    25   16   22 1
    26   16   23 1
@<TRIPOS>MOLECULE
ZINC66470288
   33    35     0     0     0
SMALL
USER_CHARGES

@<TRIPOS>ATOM
      1 C1         -0.0184    1.5028    0.0103 C.3       1 <0>        -0.0743
      2 C2          0.0021   -0.0041    0.0020 C.2       1 <0>         0.2509
      3 N1          0.0076   -0.7759   -1.0906 N.2       1 <0>        -0.5195
      4 C3          0.0262   -2.0345   -0.7496 C.2       1 <0>         0.2732
      5 O1          0.0333   -2.1066    0.5874 O.3       1 <0>        -0.0953
      6 N2          0.0229   -0.7667    1.0572 N.2       1 <0>        -0.3282
      7 C4          0.0378   -3.2062   -1.6973 C.3       1 <0>         0.2119
      8 N3          1.4226   -3.5671   -2.0107 N.pl3     1 <0>        -0.7343
      9 C5          1.6887   -4.6325   -2.8764 C.ar      1 <0>         0.2104
     10 C6          0.6420   -5.3448   -3.4436 C.ar      1 <0>        -0.1536
     11 C7          0.9097   -6.4008   -4.3023 C.ar      1 <0>         0.1690
     12 C8          2.2237   -6.7431   -4.5927 C.ar      1 <0>        -0.1423
     13 C9          3.2658   -6.0331   -4.0273 C.ar      1 <0>        -0.0804
     14 C10         3.0033   -4.9761   -3.1747 C.ar      1 <0>         0.0450
     15 F1          4.0239   -4.2804   -2.6274 F         1 <0>        -0.1310
     16 N4         -0.1469   -7.1232   -4.8770 N.pl3     1 <0>        -0.3350
     17 C11        -0.1891   -7.6739   -6.1095 C.2       1 <0>         0.2579
     18 N5         -1.3547   -8.2522   -6.2367 N.2       1 <0>        -0.3277
     19 N6         -2.0524   -8.1046   -5.1687 N.2       1 <0>        -0.0288
     20 N7         -1.3866   -7.4343   -4.2910 N.2       1 <0>        -0.0764
     21 C12         0.9042   -7.6296   -7.1457 C.3       1 <0>        -0.0868
     22 H1          1.0042    1.8801    0.0026 H         1 <0>         0.0996
     23 H2         -0.5455    1.8639   -0.8728 H         1 <0>         0.1003
     24 H3         -0.5286    1.8543    0.9071 H         1 <0>         0.0944
     25 H4         -0.4624   -4.0552   -1.2315 H         1 <0>         0.1094
     26 H5         -0.4839   -2.9360   -2.6154 H         1 <0>         0.1167
     27 H6          2.1550   -3.0670   -1.6177 H         1 <0>         0.4145
     28 H7         -0.3796   -5.0778   -3.2167 H         1 <0>         0.1482
     29 H8          2.4316   -7.5656   -5.2610 H         1 <0>         0.1462
     30 H9          4.2869   -6.3016   -4.2545 H         1 <0>         0.1555
     31 H10         1.5598   -8.4911   -7.0193 H         1 <0>         0.1050
     32 H11         0.4619   -7.6527   -8.1417 H         1 <0>         0.1098
     33 H12         1.4816   -6.7129   -7.0258 H         1 <0>         0.0957
@<TRIPOS>BOND
     1    1    2 1
     2    1   22 1
     3    1   23 1
     4    1   24 1
     5    2    6 2
     6    2    3 1
     7    3    4 2
     8    4    5 1
     9    4    7 1
    10    5    6 1
    11    7    8 1
    12    7   25 1
    13    7   26 1
    14    8    9 1
    15    8   27 1
    16    9   14 ar
    17    9   10 ar
    18   10   11 ar
    19   10   28 1
    20   11   12 ar
    21   11   16 1
    22   12   13 ar
    23   12   29 1
    24   13   14 ar
    25   13   30 1
    26   14   15 1
    27   16   20 1
    28   16   17 1
    29   17   18 2
    30   17   21 1
    31   18   19 1
    32   19   20 2
    33   21   31 1
    34   21   32 1
    35   21   33 1
@<TRIPOS>MOLECULE
ZINC39462636
   43    46     0     0     0
SMALL
USER_CHARGES

@<TRIPOS>ATOM
      1 C1         -0.0748    1.5014    0.0151 C.3       1 <0>        -0.1160
      2 C2         -0.0252   -0.0047    0.0043 C.ar      1 <0>         0.2289
      3 C3         -0.1015   -0.6858   -1.2238 C.ar      1 <0>        -0.1810
      4 C4         -0.0561   -2.0762   -1.2390 C.ar      1 <0>         0.0304
      5 C5          0.0656   -2.7448   -0.0099 C.ar      1 <0>        -0.1407
      6 C6          0.1183   -4.1484    0.0531 C.ar      1 <0>        -0.0401
      7 C7          0.2368   -4.7641    1.2607 C.ar      1 <0>        -0.1621
      8 C8          0.3068   -4.0189    2.4391 C.ar      1 <0>         0.1389
      9 C9          0.2580   -2.6560    2.4131 C.ar      1 <0>        -0.1472
     10 C10         0.1365   -1.9852    1.1856 C.ar      1 <0>         0.1821
     11 N1          0.0931   -0.6481    1.1369 N.ar      1 <0>        -0.4849
     12 F1          0.4242   -4.6576    3.6238 F         1 <0>        -0.1320
     13 C11        -0.2292    0.0683   -2.4860 C.2       1 <0>         0.5122
     14 O1         -0.1540    1.2809   -2.4795 O.2       1 <0>        -0.4940
     15 O2         -0.4291   -0.5880   -3.6456 O.3       1 <0>        -0.3248
     16 C12        -0.5435    0.2052   -4.8287 C.3       1 <0>         0.0884
     17 H1         -0.9687    1.1764   -4.5753 H         1 <0>         0.1072
     18 C13         0.8421    0.4010   -5.4474 C.3       1 <0>        -0.1533
     19 C14        -1.4409   -0.4936   -5.8172 C.2       1 <0>         0.4715
     20 O3         -1.9346   -1.5667   -5.5360 O.2       1 <0>        -0.4833
     21 N2         -1.6940    0.0691   -7.0064 N.2       1 <0>        -0.6075
     22 C15        -2.4754   -0.5394   -7.8671 C.2       1 <0>         0.4738
     23 N3         -3.0757   -1.7573   -7.6142 N.2       1 <0>        -0.6790
     24 C16        -3.2265   -2.6646   -8.6212 C.2       1 <0>         0.4153
     25 N4         -2.9959   -2.3760   -9.8845 N.2       1 <0>        -0.6380
     26 C17        -2.5700   -1.1495  -10.1838 C.2       1 <0>         0.4046
     27 N5         -1.8835   -0.6455  -11.1625 N.2       1 <0>        -0.5903
     28 C18        -1.3859    0.5570  -10.8418 C.2       1 <0>         0.2732
     29 N6         -1.8418    1.0147   -9.7103 N.2       1 <0>        -0.5212
     30 C19        -2.8101    0.0299   -9.2300 C.3       1 <0>        -0.0408
     31 H2         -3.8382    0.3893   -9.2733 H         1 <0>         0.1464
     32 H3          0.9195    1.8992   -0.1879 H         1 <0>         0.0893
     33 H4         -0.7681    1.8476   -0.7514 H         1 <0>         0.1048
     34 H5         -0.4117    1.8469    0.9925 H         1 <0>         0.0754
     35 H6         -0.1130   -2.6247   -2.1676 H         1 <0>         0.1638
     36 H7          0.0646   -4.7349   -0.8523 H         1 <0>         0.1489
     37 H8          0.2768   -5.8423    1.3081 H         1 <0>         0.1449
     38 H9          0.3127   -2.0945    3.3340 H         1 <0>         0.1507
     39 H10         1.2673   -0.5702   -5.7008 H         1 <0>         0.0609
     40 H11         0.7548    1.0060   -6.3498 H         1 <0>         0.0923
     41 H12         1.4912    0.9064   -4.7324 H         1 <0>         0.0625
     42 H13        -3.5490   -3.6644   -8.3709 H         1 <0>         0.1789
     43 H14        -0.6787    1.0919  -11.4584 H         1 <0>         0.1908
@<TRIPOS>BOND
     1    1    2 1
     2    1   32 1
     3    1   33 1
     4    1   34 1
     5    2   11 ar
     6    2    3 ar
     7    3    4 ar
     8    3   13 1
     9    4    5 ar
    10    4   35 1
    11    5   10 ar
    12    5    6 ar
    13    6    7 ar
    14    6   36 1
    15    7    8 ar
    16    7   37 1
    17    8    9 ar
    18    8   12 1
    19    9   10 ar
    20    9   38 1
    21   10   11 ar
    22   13   14 2
    23   13   15 1
    24   15   16 1
    25   16   17 1
    26   16   18 1
    27   16   19 1
    28   18   39 1
    29   18   40 1
    30   18   41 1
    31   19   20 2
    32   19   21 1
    33   21   22 2
    34   22   30 1
    35   22   23 1
    36   23   24 1
    37   24   25 2
    38   24   42 1
    39   25   26 1
    40   26   30 1
    41   26   27 2
    42   27   28 1
    43   28   29 2
    44   28   43 1
    45   29   30 1
    46   30   31 1
@<TRIPOS>MOLECULE
ZINC42678069
   32    34     0     0     0
SMALL
USER_CHARGES

@<TRIPOS>ATOM
      1 C1          0.0346    1.3464    0.5746 C.ar      1 <0>        -0.1376
      2 C2          1.2222    2.0387    0.7311 C.ar      1 <0>        -0.1082
      3 C3          2.4245    1.3580    0.7799 C.ar      1 <0>        -0.1626
      4 C4          2.4457   -0.0205    0.6724 C.ar      1 <0>         0.1102
      5 C5          1.2504   -0.7227    0.5150 C.ar      1 <0>         0.0033
      6 C6          0.0427   -0.0294    0.4666 C.ar      1 <0>        -0.0724
      7 C7          1.2652   -2.2018    0.3984 C.2       1 <0>         0.1560
      8 N1          0.1862   -2.9826    0.2446 N.2       1 <0>        -0.5609
      9 C8          0.5580   -4.2420    0.1759 C.2       1 <0>         0.1156
     10 N2          1.9043   -4.2878    0.2866 N.2       1 <0>        -0.4150
     11 N3          2.3384   -2.9595    0.4235 N.2       1 <0>        -0.3495
     12 S1         -0.5119   -5.6276   -0.0245 S.3       1 <0>         0.1348
     13 C9          0.5876   -6.9941   -0.1934 C.ar      1 <0>        -0.0202
     14 C10         0.7932   -7.8587    0.8750 C.ar      1 <0>        -0.0629
     15 C11         1.6554   -8.9284    0.7391 C.ar      1 <0>        -0.0186
     16 C12         2.3145   -9.1398   -0.4585 C.ar      1 <0>        -0.0416
     17 C13         2.1123   -8.2815   -1.5236 C.ar      1 <0>         0.0010
     18 C14         1.2465   -7.2130   -1.3967 C.ar      1 <0>        -0.0072
     19 N4          1.0255   -6.2985   -2.5396 N.pl3     1 <0>         0.0296
     20 O1          1.5992   -6.4896   -3.5864 O.2       1 <0>        -0.1729
     21 O2          0.2712   -5.3605   -2.4261 O.3       1 <0>        -0.0872
     22 N5          3.2390  -10.2873   -0.6000 N.pl3     1 <0>         0.0367
     23 O3          3.4172  -11.0384    0.3304 O.2       1 <0>        -0.1452
     24 O4          3.8158  -10.4734   -1.6461 O.3       1 <0>        -0.1474
     25 F1          3.6208   -0.6855    0.7193 F         1 <0>        -0.1231
     26 H1         -0.9017    1.8836    0.5414 H         1 <0>         0.1244
     27 H2          1.2100    3.1154    0.8151 H         1 <0>         0.1246
     28 H3          3.3485    1.9036    0.9019 H         1 <0>         0.1294
     29 H4         -0.8855   -0.5678    0.3445 H         1 <0>         0.1377
     30 H5          0.2794   -7.6938    1.8105 H         1 <0>         0.1766
     31 H6          1.8157   -9.6008    1.5690 H         1 <0>         0.1730
     32 H7          2.6288   -8.4492   -2.4571 H         1 <0>         0.1795
@<TRIPOS>BOND
     1    1    6 ar
     2    1    2 ar
     3    1   26 1
     4    2    3 ar
     5    2   27 1
     6    3    4 ar
     7    3   28 1
     8    4    5 ar
     9    4   25 1
    10    5    6 ar
    11    5    7 1
    12    6   29 1
    13    7    8 1
    14    7   11 2
    15    8    9 2
    16    9   12 1
    17    9   10 1
    18   10   11 1
    19   12   13 1
    20   13   18 ar
    21   13   14 ar
    22   14   15 ar
    23   14   30 1
    24   15   16 ar
    25   15   31 1
    26   16   17 ar
    27   16   22 1
    28   17   18 ar
    29   17   32 1
    30   18   19 1
    31   19   20 2
    32   19   21 1
    33   22   23 2
    34   22   24 1
@<TRIPOS>MOLECULE
ZINC60499248
   43    45     0     0     0
SMALL
USER_CHARGES

@<TRIPOS>ATOM
      1 C1         -0.5407    1.4422    0.1726 C.3       1 <0>        -0.1154
      2 C2         -0.2478   -0.0331    0.0797 C.ar      1 <0>        -0.0626
      3 C3         -0.1681   -0.6455   -1.1573 C.ar      1 <0>        -0.0799
      4 C4          0.1005   -1.9986   -1.2426 C.ar      1 <0>         0.0426
      5 C5          0.2900   -2.7397   -0.0909 C.ar      1 <0>        -0.5553
      6 C6          0.2112   -2.1273    1.1457 C.ar      1 <0>        -0.0341
      7 C7         -0.0532   -0.7729    1.2308 C.ar      1 <0>        -0.0703
      8 C8         -0.1339   -0.1042    2.5789 C.3       1 <0>        -0.1189
      9 S1          0.6312   -4.4649   -0.1995 S.o2      1 <0>         2.5767
     10 O1          1.6839   -4.6120   -1.1427 O.2       1 <0>        -1.0239
     11 O2          0.7311   -4.9439    1.1345 O.2       1 <0>        -1.0519
     12 N1         -0.7031   -5.1871   -0.8631 N.2       1 <0>        -1.1370
     13 C9         -0.7197   -6.6357   -1.0811 C.3       1 <0>         0.1778
     14 C10        -2.0380   -7.0368   -1.6912 C.ar      1 <0>         0.0519
     15 C11        -3.1169   -7.3792   -0.8880 C.ar      1 <0>        -0.1720
     16 C12        -4.3113   -7.7422   -1.4792 C.ar      1 <0>         0.1154
     17 N2         -4.4360   -7.7666   -2.7920 N.ar      1 <0>        -0.5235
     18 C13        -3.4309   -7.4471   -3.5909 C.ar      1 <0>         0.3454
     19 C14        -2.2022   -7.0667   -3.0652 C.ar      1 <0>        -0.1428
     20 N3         -3.6085   -7.4871   -4.9772 N.pl3     1 <0>        -0.3144
     21 C15        -4.7511   -7.8278   -5.6283 C.2       1 <0>         0.0754
     22 C16        -4.5073   -7.7398   -6.9560 C.2       1 <0>        -0.2765
     23 C17        -3.1786   -7.3340   -7.1252 C.2       1 <0>         0.0503
     24 N4         -2.6418   -7.1772   -5.9426 N.2       1 <0>        -0.2732
     25 N5          0.1848   -2.6544   -2.5669 N.pl3     1 <0>         0.0077
     26 O3          0.1481   -1.9879   -3.5749 O.2       1 <0>        -0.2205
     27 O4          0.2903   -3.8565   -2.6405 O.3       1 <0>        -0.0260
     28 H1          0.3955    2.0003    0.1549 H         1 <0>         0.0780
     29 H2         -1.1594    1.7438   -0.6725 H         1 <0>         0.0733
     30 H3         -1.0698    1.6497    1.1027 H         1 <0>         0.0765
     31 H4         -0.3161   -0.0666   -2.0570 H         1 <0>         0.1501
     32 H5          0.3589   -2.7063    2.0453 H         1 <0>         0.1563
     33 H6         -1.1601   -0.1453    2.9440 H         1 <0>         0.0800
     34 H7          0.5222   -0.6199    3.2801 H         1 <0>         0.0754
     35 H8          0.1778    0.9363    2.4876 H         1 <0>         0.0741
     36 H9          0.0914   -6.9109   -1.7553 H         1 <0>         0.0202
     37 H10        -0.5895   -7.1481   -0.1279 H         1 <0>         0.0126
     38 H11        -3.0235   -7.3622    0.1879 H         1 <0>         0.1368
     39 H12        -5.1537   -8.0098   -0.8586 H         1 <0>         0.1577
     40 H13        -1.3852   -6.8017   -3.7200 H         1 <0>         0.1474
     41 H14        -5.6848   -8.1170   -5.1690 H         1 <0>         0.1777
     42 H15        -5.2137   -7.9467   -7.7464 H         1 <0>         0.1503
     43 H16        -2.6824   -7.1733   -8.0709 H         1 <0>         0.1887
@<TRIPOS>BOND
     1    1    2 1
     2    1   28 1
     3    1   29 1
     4    1   30 1
     5    2    7 ar
     6    2    3 ar
     7    3    4 ar
     8    3   31 1
     9    4    5 ar
    10    4   25 1
    11    5    6 ar
    12    5    9 1
    13    6    7 ar
    14    6   32 1
    15    7    8 1
    16    8   33 1
    17    8   34 1
    18    8   35 1
    19    9   10 2
    20    9   11 2
    21    9   12 1
    22   12   13 1
    23   13   14 1
    24   13   36 1
    25   13   37 1
    26   14   19 ar
    27   14   15 ar
    28   15   16 ar
    29   15   38 1
    30   16   17 ar
    31   16   39 1
    32   17   18 ar
    33   18   19 ar
    34   18   20 1
    35   19   40 1
    36   20   24 1
    37   20   21 1
    38   21   22 2
    39   21   41 1
    40   22   23 1
    41   22   42 1
    42   23   24 2
    43   23   43 1
    44   25   26 2
    45   25   27 1
@<TRIPOS>MOLECULE
ZINC65194224
   46    48     0     0     0
SMALL
USER_CHARGES

@<TRIPOS>ATOM
      1 C1         -0.0184    1.5028    0.0103 C.3       1 <0>        -0.0657
      2 C2          0.0021   -0.0041    0.0020 C.2       1 <0>         0.2436
      3 N1          0.0075   -0.7703   -1.0890 N.2       1 <0>        -0.5463
      4 C3          0.0269   -2.0435   -0.7444 C.2       1 <0>         0.3667
      5 O1          0.0342   -2.1079    0.6007 O.3       1 <0>        -0.0769
      6 N2          0.0229   -0.7648    1.0605 N.2       1 <0>        -0.3480
      7 C4          0.0379   -3.1839   -1.6615 C.2       1 <0>        -0.1926
      8 C5          0.0366   -3.1553   -3.0127 C.2       1 <0>         0.1872
      9 N3          0.0493   -4.3861   -3.5425 N.2       1 <0>        -0.5006
     10 C6          0.0601   -5.3331   -2.6628 C.2       1 <0>         0.2502
     11 C7          0.0601   -4.6593   -1.3043 C.3       1 <0>        -0.5709
     12 H1         -0.8308   -4.9333   -0.7392 H         1 <0>         0.1855
     13 S1          1.5637   -5.0738   -0.3781 S.o2      1 <0>         2.5390
     14 O2          2.7129   -4.8413   -1.1810 O.2       1 <0>        -1.0029
     15 O3          1.4847   -4.5530    0.9417 O.2       1 <0>        -0.9892
     16 N4          1.5067   -6.7178   -0.1878 N.2       1 <0>        -1.0670
     17 C8          2.5332   -7.3791    0.4960 C.ar      1 <0>         0.2976
     18 C9          3.5961   -6.6581    1.0197 C.ar      1 <0>        -0.2651
     19 C10         4.6116   -7.3160    1.6965 C.ar      1 <0>         0.1446
     20 C11         4.5652   -8.6938    1.8495 C.ar      1 <0>        -0.2715
     21 C12         3.5068   -9.4147    1.3279 C.ar      1 <0>        -0.1384
     22 C13         2.4865   -8.7620    0.6568 C.ar      1 <0>         0.0391
     23 O4          1.4420   -9.4717    0.1494 O.3       1 <0>        -0.2933
     24 C14         1.4596  -10.8862    0.3516 C.3       1 <0>         0.0292
     25 O5          5.6540   -6.6101    2.2103 O.3       1 <0>        -0.3249
     26 C15         6.6650   -7.3521    2.8955 C.3       1 <0>         0.0333
     27 C16         0.0750   -6.8154   -2.9339 C.3       1 <0>        -0.1029
     28 C17         0.0216   -1.8879   -3.8280 C.3       1 <0>        -0.1041
     29 H2          1.0042    1.8801    0.0026 H         1 <0>         0.0942
     30 H3         -0.5455    1.8639   -0.8728 H         1 <0>         0.0946
     31 H4         -0.5286    1.8543    0.9071 H         1 <0>         0.0885
     32 H5          3.6328   -5.5854    0.9000 H         1 <0>         0.1134
     33 H6          5.3574   -9.2046    2.3768 H         1 <0>         0.1115
     34 H7          3.4737  -10.4875    1.4479 H         1 <0>         0.1154
     35 H8          2.3522  -11.3082   -0.1101 H         1 <0>         0.0407
     36 H9          1.4675  -11.1003    1.4204 H         1 <0>         0.0403
     37 H10         0.5724  -11.3290   -0.1011 H         1 <0>         0.0852
     38 H11         7.4358   -6.6701    3.2544 H         1 <0>         0.0878
     39 H12         6.2205   -7.8759    3.7418 H         1 <0>         0.0489
     40 H13         7.1097   -8.0762    2.2129 H         1 <0>         0.0489
     41 H14         0.0759   -6.9879   -4.0102 H         1 <0>         0.0844
     42 H15         0.9699   -7.2561   -2.4945 H         1 <0>         0.1249
     43 H16        -0.8100   -7.2743   -2.4931 H         1 <0>         0.0998
     44 H17         1.0456   -1.5707   -4.0253 H         1 <0>         0.0882
     45 H18        -0.4909   -2.0696   -4.7727 H         1 <0>         0.0794
     46 H19        -0.5007   -1.1067   -3.2756 H         1 <0>         0.0981
@<TRIPOS>BOND
     1    1    2 1
     2    1   29 1
     3    1   30 1
     4    1   31 1
     5    2    6 2
     6    2    3 1
     7    3    4 2
     8    4    5 1
     9    4    7 1
    10    5    6 1
    11    7   11 1
    12    7    8 2
    13    8    9 1
    14    8   28 1
    15    9   10 2
    16   10   11 1
    17   10   27 1
    18   11   12 1
    19   11   13 1
    20   13   14 2
    21   13   15 2
    22   13   16 1
    23   16   17 1
    24   17   22 ar
    25   17   18 ar
    26   18   19 ar
    27   18   32 1
    28   19   20 ar
    29   19   25 1
    30   20   21 ar
    31   20   33 1
    32   21   22 ar
    33   21   34 1
    34   22   23 1
    35   23   24 1
    36   24   35 1
    37   24   36 1
    38   24   37 1
    39   25   26 1
    40   26   38 1
    41   26   39 1
    42   26   40 1
    43   27   41 1
    44   27   42 1
    45   27   43 1
    46   28   44 1
    47   28   45 1
    48   28   46 1
@<TRIPOS>MOLECULE
ZINC66517310
   40    42     0     0     0
SMALL
USER_CHARGES

@<TRIPOS>ATOM
      1 C1         -0.3404    2.1182   -1.5067 C.3       1 <0>        -0.6365
      2 S1         -0.4116    0.4587   -2.2357 S.o2      1 <0>         2.5251
      3 O1         -1.6442   -0.1676   -1.9075 O.2       1 <0>        -1.0289
      4 O2          0.0474    0.4946   -3.5801 O.2       1 <0>        -1.0281
      5 N1          0.7359   -0.4138   -1.4206 N.2       1 <0>        -1.0943
      6 C2          0.9481   -1.7592   -1.7386 C.ar      1 <0>         0.2913
      7 C3          0.2007   -2.3623   -2.7419 C.ar      1 <0>        -0.2446
      8 C4          0.4112   -3.6904   -3.0555 C.ar      1 <0>        -0.0617
      9 C5          1.3686   -4.4224   -2.3686 C.ar      1 <0>        -0.0428
     10 C6          2.1153   -3.8210   -1.3661 C.ar      1 <0>        -0.0691
     11 C7          1.9104   -2.4913   -1.0553 C.ar      1 <0>        -0.1750
     12 O3          1.5750   -5.7306   -2.6779 O.3       1 <0>        -0.2845
     13 C8          2.1355   -6.0171   -3.8635 C.2       1 <0>         0.4407
     14 O4          2.5351   -5.1252   -4.5740 O.2       1 <0>        -0.4850
     15 C9          2.2663   -7.4510   -4.3083 C.3       1 <0>        -0.0759
     16 C10         2.9238   -7.4985   -5.6635 C.ar      1 <0>        -0.0591
     17 C11         2.1495   -7.4501   -6.8081 C.ar      1 <0>        -0.0788
     18 C12         2.7493   -7.4930   -8.0516 C.ar      1 <0>        -0.0972
     19 C13         4.1308   -7.5849   -8.1515 C.ar      1 <0>         0.1245
     20 C14         4.9055   -7.6334   -7.0006 C.ar      1 <0>        -0.1173
     21 C15         4.3004   -7.5848   -5.7599 C.ar      1 <0>        -0.0771
     22 N2          4.7428   -7.6291   -9.4128 N.pl3     1 <0>        -0.3222
     23 C16         6.0632   -7.7229   -9.6810 C.2       1 <0>         0.2255
     24 N3          6.1955   -7.7332  -10.9816 N.2       1 <0>        -0.3314
     25 N4          5.0488   -7.6523  -11.5540 N.2       1 <0>        -0.0369
     26 N5          4.1127   -7.5915  -10.6692 N.2       1 <0>        -0.0757
     27 H1         -0.5620    2.0568   -0.4412 H         1 <0>         0.1157
     28 H2          0.6573    2.5341   -1.6469 H         1 <0>         0.1157
     29 H3         -1.0737    2.7608   -1.9939 H         1 <0>         0.1020
     30 H4         -0.5452   -1.7927   -3.2763 H         1 <0>         0.1080
     31 H5         -0.1699   -4.1596   -3.8357 H         1 <0>         0.1038
     32 H6          2.8599   -4.3919   -0.8313 H         1 <0>         0.1129
     33 H7          2.4949   -2.0220   -0.2778 H         1 <0>         0.1205
     34 H8          2.8747   -8.0002   -3.5898 H         1 <0>         0.1183
     35 H9          1.2769   -7.9045   -4.3683 H         1 <0>         0.1183
     36 H10         1.0747   -7.3789   -6.7298 H         1 <0>         0.1398
     37 H11         2.1440   -7.4555   -8.9453 H         1 <0>         0.1428
     38 H12         5.9805   -7.7052   -7.0753 H         1 <0>         0.1365
     39 H13         4.9029   -7.6179   -4.8642 H         1 <0>         0.1409
     40 H14         6.8615   -7.7790   -8.9557 H         1 <0>         0.2394
@<TRIPOS>BOND
     1    1    2 1
     2    1   27 1
     3    1   28 1
     4    1   29 1
     5    2    3 2
     6    2    4 2
     7    2    5 1
     8    5    6 1
     9    6   11 ar
    10    6    7 ar
    11    7    8 ar
    12    7   30 1
    13    8    9 ar
    14    8   31 1
    15    9   10 ar
    16    9   12 1
    17   10   11 ar
    18   10   32 1
    19   11   33 1
    20   12   13 1
    21   13   14 2
    22   13   15 1
    23   15   16 1
    24   15   34 1
    25   15   35 1
    26   16   21 ar
    27   16   17 ar
    28   17   18 ar
    29   17   36 1
    30   18   19 ar
    31   18   37 1
    32   19   20 ar
    33   19   22 1
    34   20   21 ar
    35   20   38 1
    36   21   39 1
    37   22   26 1
    38   22   23 1
    39   23   24 2
    40   23   40 1
    41   24   25 1
    42   25   26 2
@<TRIPOS>MOLECULE
ZINC04354755
   21    22     0     0     0
SMALL
USER_CHARGES

@<TRIPOS>ATOM
      1 C1         -0.0563    1.5851   -0.4225 C.ar      1 <0>        -0.1149
      2 C2          1.1564    2.2404   -0.3478 C.ar      1 <0>        -0.0296
      3 C3          2.3297    1.5108   -0.1724 C.ar      1 <0>         0.0217
      4 C4          2.2726    0.1223   -0.0734 C.ar      1 <0>        -0.0338
      5 C5          1.0549   -0.5228   -0.1494 C.ar      1 <0>        -0.0538
      6 C6         -0.1075    0.2067   -0.3237 C.ar      1 <0>        -0.0622
      7 N1          0.9927   -1.9980   -0.0449 N.pl3     1 <0>         0.0399
      8 O1          2.0080   -2.6366    0.1070 O.2       1 <0>        -0.1638
      9 O2         -0.0734   -2.5643   -0.1114 O.3       1 <0>        -0.1689
     10 C7          3.6370    2.2102   -0.0918 C.2       1 <0>         0.0083
     11 C8          3.9302    3.3850    0.6246 C.2       1 <0>        -0.0326
     12 N2          5.2009    3.6293    0.4052 N.2       1 <0>        -0.2763
     13 N3          5.6748    2.7161   -0.3654 N.2       1 <0>        -0.1343
     14 N4          4.7696    1.8562   -0.6732 N.2       1 <0>        -0.3119
     15 N5          2.9979    4.1815    1.4538 N.pl3     1 <0>         0.0907
     16 O3          1.8969    3.7516    1.7080 O.2       1 <0>        -0.1937
     17 O4          3.3376    5.2618    1.8770 O.3       1 <0>        -0.1725
     18 H1         -0.9672    2.1503   -0.5540 H         1 <0>         0.1481
     19 H2          1.1953    3.3169   -0.4254 H         1 <0>         0.1359
     20 H3          3.1795   -0.4482    0.0623 H         1 <0>         0.1534
     21 H4         -1.0583   -0.3021   -0.3828 H         1 <0>         0.1502
@<TRIPOS>BOND
     1    1    6 ar
     2    1    2 ar
     3    1   18 1
     4    2    3 ar
     5    2   19 1
     6    3    4 ar
     7    3   10 1
     8    4    5 ar
     9    4   20 1
    10    5    6 ar
    11    5    7 1
    12    6   21 1
    13    7    8 2
    14    7    9 1
    15   10   14 2
    16   10   11 1
    17   11   12 2
    18   11   15 1
    19   12   13 1
    20   13   14 1
    21   15   16 2
    22   15   17 1
@<TRIPOS>MOLECULE
ZINC05681517
   24    25     0     0     0
SMALL
USER_CHARGES

@<TRIPOS>ATOM
      1 C1         -0.0167    1.3779    0.0096 C.ar      1 <0>        -0.1408
      2 C2          1.1711    2.0854    0.0021 C.ar      1 <0>        -0.0215
      3 C3          2.3773    1.4107   -0.0130 C.ar      1 <0>        -0.0756
      4 C4          2.3961    0.0283   -0.0201 C.ar      1 <0>         0.0431
      5 C5          1.2086   -0.6790   -0.0117 C.ar      1 <0>        -0.6254
      6 C6          0.0021   -0.0041    0.0020 C.ar      1 <0>         0.0263
      7 S1          1.2325   -2.4408   -0.0219 S.o2      1 <0>         2.6513
      8 O1         -0.0129   -2.8607   -0.5621 O.2       1 <0>        -1.0035
      9 O2          2.4774   -2.8268   -0.5880 O.2       1 <0>        -1.0018
     10 N1          1.2558   -2.9393    1.5571 N.2       1 <0>        -1.0784
     11 C7          1.2773   -4.2898    1.8558 C.2       1 <0>         0.5764
     12 N2          1.2921   -4.8301    3.0927 N.pl3     1 <0>        -0.5159
     13 N3          1.3107   -6.2230    2.9153 N.2       1 <0>        -0.3778
     14 C8          1.3063   -6.4439    1.6282 C.2       1 <0>         0.2186
     15 N4          1.2812   -5.2760    0.9848 N.2       1 <0>        -0.6504
     16 N5          3.6490    2.1682   -0.0221 N.pl3     1 <0>         0.0382
     17 O3          3.6326    3.3771   -0.0163 O.2       1 <0>        -0.1666
     18 O4          4.7040    1.5780   -0.0353 O.3       1 <0>        -0.1545
     19 H1         -0.9591    1.9051    0.0259 H         1 <0>         0.1531
     20 H2          1.1565    3.1653    0.0076 H         1 <0>         0.1555
     21 H3          3.3385   -0.4989   -0.0326 H         1 <0>         0.1671
     22 H4         -0.9258   -0.5567    0.0082 H         1 <0>         0.1582
     23 H5          1.3173   -7.4170    1.1598 H         1 <0>         0.1976
     24 H6          1.2905   -4.3515    3.9364 H         1 <0>         0.4269
@<TRIPOS>BOND
     1    1    6 ar
     2    1    2 ar
     3    1   19 1
     4    2    3 ar
     5    2   20 1
     6    3    4 ar
     7    3   16 1
     8    4    5 ar
     9    4   21 1
    10    5    6 ar
    11    5    7 1
    12    6   22 1
    13    7    8 2
    14    7    9 2
    15    7   10 1
    16   10   11 1
    17   11   15 2
    18   11   12 1
    19   12   13 1
    20   12   24 1
    21   13   14 2
    22   14   15 1
    23   14   23 1
    24   16   17 2
    25   16   18 1
@<TRIPOS>MOLECULE
ZINC48763377
   30    30     0     0     0
SMALL
USER_CHARGES

@<TRIPOS>ATOM
      1 C1         -0.0187    1.5258    0.0104 C.3       1 <0>        -0.1603
      2 C2          0.0021   -0.0041    0.0020 C.3       1 <0>         0.1205
      3 H1         -1.0205   -0.3814    0.0098 H         1 <0>         0.0771
      4 C3          0.7309   -0.5033    1.2229 C.2       1 <0>         0.4938
      5 O1          2.0436   -0.8060    1.1482 O.3       1 <0>        -0.6950
      6 N1          0.0996   -0.6412    2.3398 N.2       1 <0>        -1.0612
      7 S1          0.9005   -1.1898    3.6814 S.o2      1 <0>         2.6459
      8 O2          1.2742   -2.5337    3.4101 O.2       1 <0>        -0.9876
      9 O3          1.8497   -0.1897    4.0250 O.2       1 <0>        -0.9860
     10 C4         -0.2685   -1.2483    4.9985 C.ar      1 <0>        -0.6025
     11 C5         -0.4543   -0.1422    5.8071 C.ar      1 <0>         0.0334
     12 C6         -1.3707   -0.1868    6.8410 C.ar      1 <0>        -0.0467
     13 C7         -2.1028   -1.3371    7.0673 C.ar      1 <0>        -0.0581
     14 C8         -1.9179   -2.4450    6.2580 C.ar      1 <0>         0.0856
     15 C9         -1.0032   -2.3975    5.2192 C.ar      1 <0>        -0.0045
     16 F1         -2.6329   -3.5699    6.4782 F         1 <0>        -0.1196
     17 N2         -1.5678    0.9976    7.7063 N.pl3     1 <0>         0.0368
     18 O4         -0.9273    2.0039    7.5089 O.2       1 <0>        -0.1428
     19 O5         -2.3692    0.9590    8.6107 O.3       1 <0>        -0.1578
     20 O6          0.6709   -0.4649   -1.1737 O.3       1 <0>        -0.3647
     21 C10        -0.1936   -0.6642   -2.2939 C.3       1 <0>         0.0293
     22 H2          1.0039    1.9031    0.0027 H         1 <0>         0.0654
     23 H3         -0.5459    1.8868   -0.8726 H         1 <0>         0.0555
     24 H4         -0.5289    1.8773    0.9072 H         1 <0>         0.0724
     25 H5          0.1172    0.7571    5.6311 H         1 <0>         0.1756
     26 H6         -2.8184   -1.3718    7.8753 H         1 <0>         0.1693
     27 H7         -0.8614   -3.2597    4.5845 H         1 <0>         0.1717
     28 H8          0.3899   -1.0139   -3.1455 H         1 <0>         0.0811
     29 H9         -0.9496   -1.4078   -2.0416 H         1 <0>         0.0374
     30 H10        -0.6807    0.2769   -2.5489 H         1 <0>         0.0360
@<TRIPOS>BOND
     1    1    2 1
     2    1   22 1
     3    1   23 1
     4    1   24 1
     5    2    3 1
     6    2    4 1
     7    2   20 1
     8    4    5 1
     9    4    6 2
    10    6    7 1
    11    7    8 2
    12    7    9 2
    13    7   10 1
    14   10   15 ar
    15   10   11 ar
    16   11   12 ar
    17   11   25 1
    18   12   13 ar
    19   12   17 1
    20   13   14 ar
    21   13   26 1
    22   14   15 ar
    23   14   16 1
    24   15   27 1
    25   17   18 2
    26   17   19 1
    27   20   21 1
    28   21   28 1
    29   21   29 1
    30   21   30 1
@<TRIPOS>MOLECULE
ZINC61844939
   28    29     0     0     0
SMALL
USER_CHARGES

@<TRIPOS>ATOM
      1 C1         -0.0173    1.4248    0.0099 C.3       1 <0>         0.0345
      2 O1          0.0021   -0.0041    0.0020 O.3       1 <0>        -0.3480
      3 C2          0.6005   -0.6018   -1.0464 C.2       1 <0>         0.5104
      4 O2          1.0924    0.0714   -1.9298 O.2       1 <0>        -0.5030
      5 C3          0.6585   -2.0760   -1.1219 C.ar      1 <0>        -0.0968
      6 C4          0.0891   -2.8529   -0.1110 C.ar      1 <0>        -0.0867
      7 C5          0.1469   -4.2290   -0.1877 C.ar      1 <0>        -0.0371
      8 C6          0.7674   -4.8396   -1.2632 C.ar      1 <0>        -0.5878
      9 C7          1.3341   -4.0758   -2.2682 C.ar      1 <0>        -0.0350
     10 C8          1.2780   -2.6989   -2.2072 C.ar      1 <0>        -0.0788
     11 S1          0.8366   -6.5980   -1.3532 S.o2      1 <0>         2.6469
     12 O3          1.9466   -6.9189   -2.1802 O.2       1 <0>        -1.0096
     13 O4          0.7151   -7.0779   -0.0212 O.2       1 <0>        -1.0096
     14 N1         -0.5178   -7.1006   -2.1627 N.2       1 <0>        -1.0833
     15 C9         -0.7313   -8.4518   -2.3840 C.2       1 <0>         0.5038
     16 N2         -1.7922   -9.0092   -3.0364 N.pl3     1 <0>        -0.6111
     17 C10        -1.5761  -10.3591   -3.0097 C.2       1 <0>         0.0800
     18 N3         -0.4547  -10.5597   -2.3774 N.2       1 <0>        -0.2860
     19 N4          0.0514   -9.4366   -2.0105 N.2       1 <0>        -0.4271
     20 H1          1.0053    1.8021    0.0021 H         1 <0>         0.0608
     21 H2         -0.5445    1.7859   -0.8732 H         1 <0>         0.0610
     22 H3         -0.5275    1.7763    0.9067 H         1 <0>         0.1031
     23 H4         -0.3952   -2.3775    0.7291 H         1 <0>         0.1430
     24 H5         -0.2928   -4.8311    0.5936 H         1 <0>         0.1480
     25 H6          1.8175   -4.5588   -3.1045 H         1 <0>         0.1492
     26 H7          1.7165   -2.1039   -2.9947 H         1 <0>         0.1423
     27 H8         -2.2164  -11.1184   -3.4339 H         1 <0>         0.2017
     28 H9         -2.5440   -8.5442   -3.4359 H         1 <0>         0.4150
@<TRIPOS>BOND
     1    1    2 1
     2    1   20 1
     3    1   21 1
     4    1   22 1
     5    2    3 1
     6    3    4 2
     7    3    5 1
     8    5   10 ar
     9    5    6 ar
    10    6    7 ar
    11    6   23 1
    12    7    8 ar
    13    7   24 1
    14    8    9 ar
    15    8   11 1
    16    9   10 ar
    17    9   25 1
    18   10   26 1
    19   11   12 2
    20   11   13 2
    21   11   14 1
    22   14   15 1
    23   15   19 2
    24   15   16 1
    25   16   17 1
    26   16   28 1
    27   17   18 2
    28   17   27 1
    29   18   19 1
@<TRIPOS>MOLECULE
ZINC52795827
   38    39     0     0     0
SMALL
USER_CHARGES

@<TRIPOS>ATOM
      1 C1         -0.5381    1.4471    0.0889 C.3       1 <0>        -0.1197
      2 C2         -0.2471   -0.0307    0.0397 C.ar      1 <0>        -0.0404
      3 C3         -0.3493   -0.7132   -1.1554 C.ar      1 <0>        -0.0765
      4 C4         -0.0797   -2.0809   -1.1993 C.ar      1 <0>        -0.0007
      5 C5          0.2920   -2.7505   -0.0331 C.ar      1 <0>        -0.0705
      6 C6          0.3906   -2.0571    1.1554 C.ar      1 <0>        -0.0753
      7 C7          0.1273   -0.6992    1.1913 C.ar      1 <0>        -0.0469
      8 N1          0.2413    0.0401    2.4685 N.pl3     1 <0>         0.0368
      9 O1          0.6755    1.1685    2.4772 O.2       1 <0>        -0.1587
     10 O2         -0.0997   -0.4843    3.5031 O.3       1 <0>        -0.1682
     11 C8         -0.1878   -2.8189   -2.4775 C.2       1 <0>         0.5141
     12 O3         -0.5488   -2.1671   -3.6062 O.3       1 <0>        -0.7043
     13 N2          0.0641   -4.0936   -2.5154 N.2       1 <0>        -1.0686
     14 S1         -0.0570   -4.9194   -3.9457 S.o2      1 <0>         2.7618
     15 O4         -1.4302   -4.9006   -4.3106 O.2       1 <0>        -1.0203
     16 O5          0.9639   -4.4131   -4.7946 O.2       1 <0>        -1.0204
     17 N3          0.3280   -6.4994   -3.6329 N.pl3     1 <0>        -0.9974
     18 C9          1.7181   -6.9648   -3.7314 C.3       1 <0>         0.1277
     19 C10         2.1029   -7.6502   -2.4165 C.3       1 <0>        -0.1345
     20 C11         1.0905   -8.7553   -2.1066 C.3       1 <0>        -0.1132
     21 C12        -0.3021   -8.1423   -1.9423 C.3       1 <0>        -0.1347
     22 C13        -0.7132   -7.4611   -3.2459 C.3       1 <0>         0.1277
     23 H1          0.3942    2.0043   -0.0039 H         1 <0>         0.0902
     24 H2         -1.2040    1.7138   -0.7317 H         1 <0>         0.0783
     25 H3         -1.0148    1.6921    1.0380 H         1 <0>         0.0684
     26 H4         -0.6378   -0.1894   -2.0547 H         1 <0>         0.1564
     27 H5          0.5017   -3.8096   -0.0607 H         1 <0>         0.1617
     28 H6          0.6778   -2.5744    2.0589 H         1 <0>         0.1450
     29 H7          1.8084   -7.6747   -4.5536 H         1 <0>         0.0594
     30 H8          2.3767   -6.1141   -3.9064 H         1 <0>         0.0853
     31 H9          3.0982   -8.0845   -2.5103 H         1 <0>         0.0663
     32 H10         2.0998   -6.9173   -1.6097 H         1 <0>         0.0716
     33 H11         1.0763   -9.4747   -2.9253 H         1 <0>         0.0583
     34 H12         1.3759   -9.2609   -1.1841 H         1 <0>         0.0588
     35 H13        -1.0185   -8.9268   -1.6985 H         1 <0>         0.0668
     36 H14        -0.2825   -7.4047   -1.1399 H         1 <0>         0.0714
     37 H15        -1.6583   -6.9377   -3.1006 H         1 <0>         0.0854
     38 H16        -0.8256   -8.2124   -4.0276 H         1 <0>         0.0589
@<TRIPOS>BOND
     1    1    2 1
     2    1   23 1
     3    1   24 1
     4    1   25 1
     5    2    7 ar
     6    2    3 ar
     7    3    4 ar
     8    3   26 1
     9    4    5 ar
    10    4   11 1
    11    5    6 ar
    12    5   27 1
    13    6    7 ar
    14    6   28 1
    15    7    8 1
    16    8    9 2
    17    8   10 1
    18   11   12 1
    19   11   13 2
    20   13   14 1
    21   14   15 2
    22   14   16 2
    23   14   17 1
    24   17   22 1
    25   17   18 1
    26   18   19 1
    27   18   29 1
    28   18   30 1
    29   19   20 1
    30   19   31 1
    31   19   32 1
    32   20   21 1
    33   20   33 1
    34   20   34 1
    35   21   22 1
    36   21   35 1
    37   21   36 1
    38   22   37 1
    39   22   38 1
@<TRIPOS>MOLECULE
ZINC13027461
   40    41     0     0     0
SMALL
USER_CHARGES
1-[4-(2-carboxyethyl)phenyl]sulfonylpiperidine-4-carboxylic acid
@<TRIPOS>ATOM
      1 C1          0.0021   -0.0041    0.0020 C.ar      1 <0>        -0.1421
      2 C2         -0.0167    1.3781    0.0096 C.ar      1 <0>        -0.0185
      3 C3          1.1709    2.0855    0.0021 C.ar      1 <0>        -0.6882
      4 C4          2.3773    1.4107   -0.0145 C.ar      1 <0>        -0.0187
      5 C5          2.3961    0.0285   -0.0212 C.ar      1 <0>        -0.1422
      6 C6          1.2084   -0.6789   -0.0132 C.ar      1 <0>        -0.0122
      7 C7          1.2289   -2.1857   -0.0205 C.3       1 <0>        -0.0726
      8 C8          1.2214   -2.6889   -1.4653 C.3       1 <0>        -0.1506
      9 C9          1.2419   -4.1957   -1.4726 C.2       1 <0>         0.4610
     10 O1          1.2605   -4.8047   -0.4292 O.co2     1 <0>        -0.6409
     11 S1          1.1470    3.8473    0.0112 S.o2      1 <0>         2.6920
     12 O2          2.3816    4.2732   -0.5490 O.2       1 <0>        -0.9621
     13 O3         -0.1088    4.2393   -0.5259 O.2       1 <0>        -0.9624
     14 N1          1.1552    4.3289    1.5957 N.pl3     1 <0>        -0.9935
     15 C10        -0.1052    4.5353    2.3219 C.3       1 <0>         0.1195
     16 C11        -0.1042    5.9356    2.9323 C.3       1 <0>        -0.1071
     17 C12         1.1515    6.1156    3.7884 C.3       1 <0>        -0.1267
     18 C13         2.3956    5.9691    2.9092 C.3       1 <0>        -0.1062
     19 C14         2.4230    4.5638    2.3001 C.3       1 <0>         0.1175
     20 C15         1.1389    7.4855    4.4163 C.2       1 <0>         0.4660
     21 O4          2.0330    8.2645    4.1846 O.co2     1 <0>        -0.6414
     22 H1         -0.9258   -0.5567    0.0083 H         1 <0>         0.1308
     23 H2         -0.9592    1.9054    0.0170 H         1 <0>         0.1360
     24 H3          3.3052    1.9634   -0.0201 H         1 <0>         0.1358
     25 H4          3.3386   -0.4987   -0.0324 H         1 <0>         0.1307
     26 H5          2.1288   -2.5393    0.4828 H         1 <0>         0.0769
     27 H6          0.3491   -2.5635    0.5004 H         1 <0>         0.0770
     28 H7          0.3215   -2.3353   -1.9686 H         1 <0>         0.0663
     29 H8          2.1012   -2.3111   -1.9862 H         1 <0>         0.0663
     30 H9         -0.9441    4.4393    1.6325 H         1 <0>         0.0882
     31 H10        -0.1953    3.7937    3.1156 H         1 <0>         0.0673
     32 H11        -0.9900    6.0632    3.5545 H         1 <0>         0.0816
     33 H12        -0.1098    6.6778    2.1340 H         1 <0>         0.0599
     34 H13         1.1689    5.3575    4.5714 H         1 <0>         0.0698
     35 H14         3.2890    6.1206    3.5150 H         1 <0>         0.0734
     36 H15         2.3671    6.7110    2.1111 H         1 <0>         0.0661
     37 H16         2.5434    3.8246    3.0921 H         1 <0>         0.0656
     38 H17         3.2518    4.4866    1.5964 H         1 <0>         0.0876
     39 O5          1.2394   -4.8613   -2.6383 O.co2     1 <0>        -0.7759
     40 O6          0.1345    7.8401    5.2331 O.co2     1 <0>        -0.7744
@<TRIPOS>BOND
     1    1    6 ar
     2    1    2 ar
     3    1   22 1
     4    2    3 ar
     5    2   23 1
     6    3    4 ar
     7    3   11 1
     8    4    5 ar
     9    4   24 1
    10    5    6 ar
    11    5   25 1
    12    6    7 1
    13    7    8 1
    14    7   26 1
    15    7   27 1
    16    8    9 1
    17    8   28 1
    18    8   29 1
    19    9   10 2
    20    9   39 1
    21   11   12 2
    22   11   13 2
    23   11   14 1
    24   14   19 1
    25   14   15 1
    26   15   16 1
    27   15   30 1
    28   15   31 1
    29   16   17 1
    30   16   32 1
    31   16   33 1
    32   17   18 1
    33   17   20 1
    34   17   34 1
    35   18   19 1
    36   18   35 1
    37   18   36 1
    38   19   37 1
    39   19   38 1
    40   20   21 2
    41   20   40 1
@<TRIPOS>MOLECULE
ZINC31958623
   29    29     0     0     0
SMALL
USER_CHARGES
(2S)-2-[[2-[(2,2,2-trifluoroacetyl)amino]thiazole-4-carbonyl]amino]butanoic acid
@<TRIPOS>ATOM
      1 C1         -3.5185    2.3483   -1.1565 C.3       1 <0>        -0.1475
      2 C2         -2.1344    1.7001   -1.2279 C.3       1 <0>        -0.1101
      3 C3         -1.3313    2.0738    0.0196 C.3       1 <0>         0.1037
      4 H1         -1.8882    1.8288    0.9360 H         1 <0>         0.0826
      5 C4         -0.0161    1.3381    0.0094 C.2       1 <0>         0.4583
      6 O1          1.0219    1.9564    0.0028 O.co2     1 <0>        -0.6241
      7 O2          0.0021   -0.0041    0.0020 O.co2     1 <0>        -0.7817
      8 N1         -1.0832    3.5176    0.0263 N.am      1 <0>        -0.6942
      9 C5         -0.8633    4.1582    1.1915 C.2       1 <0>         0.5935
     10 O3         -0.8708    3.5375    2.2377 O.2       1 <0>        -0.5658
     11 C6         -0.6140    5.6089    1.1982 C.2       1 <0>         0.0428
     12 C7         -0.3944    6.2712    2.3770 C.2       1 <0>        -0.2444
     13 S1         -0.1626    7.9008    1.8243 S.3       1 <0>        -0.0519
     14 C8         -0.3798    7.5976    0.0784 C.2       1 <0>         0.3964
     15 N2         -0.6039    6.2999    0.0562 N.2       1 <0>        -0.5368
     16 N3         -0.3271    8.4956   -0.9800 N.2       1 <0>        -0.6037
     17 C9         -0.0816    9.7999   -0.7454 C.2       1 <0>         0.4176
     18 O4          0.0932   10.1895    0.3898 O.3       1 <0>        -0.5654
     19 C10        -0.0244   10.7743   -1.8936 C.3       1 <0>         0.4718
     20 F1          0.2417   12.0573   -1.4036 F         1 <0>        -0.1781
     21 F2          0.9900   10.3933   -2.7784 F         1 <0>        -0.1772
     22 F3         -1.2520   10.7768   -2.5647 F         1 <0>        -0.1784
     23 H2         -4.0959    2.0796   -2.0534 H         1 <0>         0.0455
     24 H3         -3.4091    3.4416   -1.1047 H         1 <0>         0.0563
     25 H4         -4.0455    1.9896   -0.2601 H         1 <0>         0.0483
     26 H5         -2.2438    0.6068   -1.2797 H         1 <0>         0.0799
     27 H6         -1.6074    2.0587   -2.1243 H         1 <0>         0.0605
     28 H7         -1.0764    4.0789   -0.9197 H         1 <0>         0.4225
     29 H8         -0.3707    5.8822    3.3843 H         1 <0>         0.1795
@<TRIPOS>BOND
     1    1    2 1
     2    1   23 1
     3    1   24 1
     4    1   25 1
     5    2    3 1
     6    2   26 1
     7    2   27 1
     8    3    4 1
     9    3    5 1
    10    3    8 1
    11    5    6 2
    12    5    7 1
    13    8    9 am
    14    8   28 1
    15    9   10 2
    16    9   11 1
    17   11   15 1
    18   11   12 2
    19   12   13 1
    20   12   29 1
    21   13   14 1
    22   14   15 2
    23   14   16 1
    24   16   17 2
    25   17   18 1
    26   17   19 1
    27   19   20 1
    28   19   21 1
    29   19   22 1
@<TRIPOS>MOLECULE
ZINC45866086
   34    35     0     0     0
SMALL
USER_CHARGES

@<TRIPOS>ATOM
      1 C1         -0.0225    1.8097    0.0120 C.3       1 <0>        -0.6498
      2 S1          0.0021   -0.0041    0.0020 S.o2      1 <0>         2.5028
      3 O1          0.8352   -0.4880    1.0465 O.2       1 <0>        -0.9422
      4 O2         -1.3147   -0.5105   -0.1678 O.2       1 <0>        -0.9422
      5 C2          0.8454   -0.4373   -1.4831 C.ar      1 <0>        -0.6346
      6 C3          0.1346   -0.6126   -2.6557 C.ar      1 <0>        -0.0518
      7 C4          0.7962   -0.9525   -3.8208 C.ar      1 <0>        -0.0459
      8 C5          2.1688   -1.1167   -3.8136 C.ar      1 <0>        -0.5514
      9 C6          2.8797   -0.9405   -2.6412 C.ar      1 <0>        -0.0459
     10 C7          2.2186   -0.5964   -1.4770 C.ar      1 <0>        -0.0517
     11 S2          3.0120   -1.5511   -5.2985 S.o2      1 <0>         2.5776
     12 O3          4.2256   -2.1785   -4.9077 O.2       1 <0>        -1.0305
     13 O4          2.0581   -2.1915   -6.1347 O.2       1 <0>        -1.0305
     14 N1          3.4314   -0.1387   -6.0544 N.2       1 <0>        -1.0842
     15 C8          4.1197   -0.1745   -7.2698 C.ar      1 <0>         0.2501
     16 C9          4.4473   -1.3961   -7.8473 C.ar      1 <0>        -0.2661
     17 C10         5.1282   -1.4376   -9.0496 C.ar      1 <0>        -0.0951
     18 C11         5.4880   -0.2670   -9.6853 C.ar      1 <0>        -0.1747
     19 C12         5.1639    0.9661   -9.1140 C.ar      1 <0>        -0.1075
     20 C13         4.4707    1.0077   -7.9025 C.ar      1 <0>        -0.1326
     21 C14         5.5477    2.2197   -9.7910 C.2       1 <0>         0.5260
     22 O5          6.1508    2.1806  -10.8541 O.co2     1 <0>        -0.7052
     23 O6          5.2629    3.2978   -9.2889 O.co2     1 <0>        -0.6980
     24 H1          1.0001    2.1870    0.0043 H         1 <0>         0.1339
     25 H2         -0.5497    2.1708   -0.8711 H         1 <0>         0.1338
     26 H3         -0.5327    2.1613    0.9088 H         1 <0>         0.1294
     27 H4         -0.9378   -0.4844   -2.6614 H         1 <0>         0.1437
     28 H5          0.2407   -1.0902   -4.7367 H         1 <0>         0.1475
     29 H6          3.9520   -1.0690   -2.6355 H         1 <0>         0.1475
     30 H7          2.7745   -0.4551   -0.5619 H         1 <0>         0.1438
     31 H8          4.1692   -2.3160   -7.3545 H         1 <0>         0.0869
     32 H9          5.3797   -2.3898   -9.4929 H         1 <0>         0.0934
     33 H10         6.0205   -0.3040  -10.6242 H         1 <0>         0.1068
     34 H11         4.2132    1.9576   -7.4577 H         1 <0>         0.1166
@<TRIPOS>BOND
     1    1    2 1
     2    1   24 1
     3    1   25 1
     4    1   26 1
     5    2    3 2
     6    2    4 2
     7    2    5 1
     8    5   10 ar
     9    5    6 ar
    10    6    7 ar
    11    6   27 1
    12    7    8 ar
    13    7   28 1
    14    8    9 ar
    15    8   11 1
    16    9   10 ar
    17    9   29 1
    18   10   30 1
    19   11   12 2
    20   11   13 2
    21   11   14 1
    22   14   15 1
    23   15   20 ar
    24   15   16 ar
    25   16   17 ar
    26   16   31 1
    27   17   18 ar
    28   17   32 1
    29   18   19 ar
    30   18   33 1
    31   19   20 ar
    32   19   21 1
    33   20   34 1
    34   21   22 2
    35   21   23 1
@<TRIPOS>MOLECULE
ZINC47202405
   35    36     0     0     0
SMALL
USER_CHARGES

@<TRIPOS>ATOM
      1 C1         -0.0178    1.4608    0.0101 C.3       1 <0>         0.0904
      2 N1          0.0021   -0.0041    0.0020 N.am      1 <0>        -0.7353
      3 C2          0.6044   -0.6754    1.0035 C.2       1 <0>         0.5649
      4 O1          1.1311   -0.0654    1.9135 O.2       1 <0>        -0.5397
      5 C3          0.6244   -2.1537    0.9954 C.ar      1 <0>        -0.1169
      6 C4          0.0256   -2.8570   -0.0509 C.ar      1 <0>        -0.1127
      7 C5          0.0482   -4.2364   -0.0527 C.ar      1 <0>        -0.0306
      8 C6          0.6624   -4.9226    0.9799 C.ar      1 <0>        -0.5674
      9 C7          1.2575   -4.2314    2.0204 C.ar      1 <0>        -0.0300
     10 C8          1.2473   -2.8519    2.0311 C.ar      1 <0>        -0.0831
     11 S1          0.6863   -6.6844    0.9702 S.o2      1 <0>         2.5596
     12 O2          0.8438   -7.0959    2.3212 O.2       1 <0>        -1.0370
     13 O3         -0.4115   -7.1010    0.1700 O.2       1 <0>        -1.0381
     14 N2          2.0591   -7.1510    0.1702 N.2       1 <0>        -0.9872
     15 C9          2.3429   -8.4992    0.0078 C.ar      1 <0>         0.3214
     16 C10         1.4754   -9.4606    0.5098 C.ar      1 <0>        -0.2983
     17 C11         1.7585  -10.8018    0.3484 C.ar      1 <0>        -0.0470
     18 C12         2.9070  -11.2034   -0.3137 C.ar      1 <0>        -0.2860
     19 C13         3.7837  -10.2657   -0.8209 C.ar      1 <0>         0.1577
     20 C14         3.5073   -8.8995   -0.6708 C.ar      1 <0>        -0.2352
     21 C15         4.4308   -7.8939   -1.2121 C.2       1 <0>         0.5295
     22 O4          4.1880   -6.7025   -1.0734 O.co2     1 <0>        -0.6535
     23 O5          5.4431   -8.2475   -1.8020 O.co2     1 <0>        -0.7265
     24 F1          4.9027  -10.6634   -1.4650 F         1 <0>        -0.1391
     25 H1          1.0048    1.8381    0.0023 H         1 <0>         0.0592
     26 H2         -0.5450    1.8219   -0.8730 H         1 <0>         0.0736
     27 H3         -0.5280    1.8123    0.9069 H         1 <0>         0.0576
     28 H4         -0.4183   -0.4908   -0.7241 H         1 <0>         0.4038
     29 H5         -0.4548   -2.3226   -0.8572 H         1 <0>         0.1254
     30 H6         -0.4148   -4.7819   -0.8617 H         1 <0>         0.1430
     31 H7          1.7350   -4.7730    2.8236 H         1 <0>         0.1443
     32 H8          1.7165   -2.3135    2.8413 H         1 <0>         0.1371
     33 H9          0.5774   -9.1581    1.0279 H         1 <0>         0.0941
     34 H10         1.0795  -11.5439    0.7416 H         1 <0>         0.0999
     35 H11         3.1178  -12.2559   -0.4334 H         1 <0>         0.1022
@<TRIPOS>BOND
     1    1    2 1
     2    1   25 1
     3    1   26 1
     4    1   27 1
     5    2    3 am
     6    2   28 1
     7    3    4 2
     8    3    5 1
     9    5   10 ar
    10    5    6 ar
    11    6    7 ar
    12    6   29 1
    13    7    8 ar
    14    7   30 1
    15    8    9 ar
    16    8   11 1
    17    9   10 ar
    18    9   31 1
    19   10   32 1
    20   11   12 2
    21   11   13 2
    22   11   14 1
    23   14   15 1
    24   15   20 ar
    25   15   16 ar
    26   16   17 ar
    27   16   33 1
    28   17   18 ar
    29   17   34 1
    30   18   19 ar
    31   18   35 1
    32   19   20 ar
    33   19   24 1
    34   20   21 1
    35   21   22 2
    36   21   23 1
@<TRIPOS>MOLECULE
ZINC63216519
   26    27     0     0     0
SMALL
USER_CHARGES

@<TRIPOS>ATOM
      1 C1         -0.0184    1.5028    0.0103 C.3       1 <0>        -0.1129
      2 C2          0.0021   -0.0041    0.0020 C.2       1 <0>         0.2115
      3 C3          0.0079   -0.7958   -1.0953 C.2       1 <0>        -0.7520
      4 C4          0.0284   -2.1267   -0.6656 C.2       1 <0>         0.1298
      5 N1          0.0347   -2.1338    0.6427 N.2       1 <0>        -0.3182
      6 N2          0.0237   -0.8054    1.0876 N.pl3     1 <0>        -0.4819
      7 H1          0.0286   -0.5133    2.0125 H         1 <0>         0.4304
      8 S1         -0.0081   -0.2472   -2.7696 S.o2      1 <0>         2.6257
      9 O1          1.0029    0.7451   -2.8815 O.2       1 <0>        -1.0364
     10 O2         -0.0226   -1.4147   -3.5795 O.2       1 <0>        -1.0369
     11 N3         -1.4541    0.5202   -3.0196 N.2       1 <0>        -0.9775
     12 C5         -1.7453    1.0586   -4.2578 C.ar      1 <0>         0.4153
     13 C6         -2.9692    1.7158   -4.4725 C.ar      1 <0>        -0.0171
     14 N4         -3.2390    2.2308   -5.6700 N.ar      1 <0>        -0.3888
     15 C7         -2.3619    2.1232   -6.6458 C.ar      1 <0>        -0.1098
     16 C8         -1.1525    1.4735   -6.4343 C.ar      1 <0>         0.0882
     17 N5         -0.8678    0.9628   -5.2508 N.ar      1 <0>        -0.5827
     18 C9         -3.9489    1.8337   -3.3774 C.2       1 <0>         0.5466
     19 O3         -3.6979    1.3590   -2.2784 O.co2     1 <0>        -0.6469
     20 O4         -5.0129    2.4062   -3.5677 O.co2     1 <0>        -0.7137
     21 H2          1.0042    1.8801    0.0026 H         1 <0>         0.0865
     22 H3         -0.5455    1.8639   -0.8728 H         1 <0>         0.1169
     23 H4         -0.5286    1.8543    0.9071 H         1 <0>         0.0742
     24 H5          0.0370   -2.9981   -1.3036 H         1 <0>         0.1908
     25 H6         -2.5840    2.5422   -7.6161 H         1 <0>         0.1297
     26 H7         -0.4395    1.3897   -7.2411 H         1 <0>         0.1290
@<TRIPOS>BOND
     1    1    2 1
     2    1   21 1
     3    1   22 1
     4    1   23 1
     5    2    6 1
     6    2    3 2
     7    3    4 1
     8    3    8 1
     9    4    5 2
    10    4   24 1
    11    5    6 1
    12    6    7 1
    13    8    9 2
    14    8   10 2
    15    8   11 1
    16   11   12 1
    17   12   17 ar
    18   12   13 ar
    19   13   14 ar
    20   13   18 1
    21   14   15 ar
    22   15   16 ar
    23   15   25 1
    24   16   17 ar
    25   16   26 1
    26   18   19 2
    27   18   20 1
@<TRIPOS>MOLECULE
ZINC20561166
   27    28     0     0     0
SMALL
USER_CHARGES
3-amino-4-chloro-N-(3-pyridyl)benzenesulfonamide
@<TRIPOS>ATOM
      1 C1          2.3521   -0.0337   -0.0211 C.ar      1 <0>        -0.1530
      2 C2          2.3811    1.3514   -0.0140 C.ar      1 <0>        -0.1282
      3 C3          1.1696    2.0382    0.0018 C.ar      1 <0>         0.1854
      4 C4         -0.0158    1.3137    0.0093 C.ar      1 <0>        -0.0025
      5 N1          0.0021   -0.0041    0.0020 N.ar      1 <0>        -0.4682
      6 C5          1.1322   -0.6837   -0.0125 C.ar      1 <0>         0.0121
      7 N2          1.1467    3.4351    0.0091 N.2       1 <0>        -1.0622
      8 S1          0.1287    4.2412    1.0369 S.o2      1 <0>         2.5883
      9 O1          0.3559    5.6283    0.8283 O.2       1 <0>        -0.9944
     10 O2         -1.1537    3.6481    0.8862 O.2       1 <0>        -1.0337
     11 C6          0.6581    3.8856    2.6795 C.ar      1 <0>        -0.5981
     12 C7          0.1351    2.7970    3.3531 C.ar      1 <0>        -0.0816
     13 C8          0.5511    2.5113    4.6404 C.ar      1 <0>        -0.0859
     14 C9          1.4839    3.3198    5.2621 C.ar      1 <0>        -0.0905
     15 C10         2.0073    4.4176    4.5894 C.ar      1 <0>         0.2135
     16 C11         1.5906    4.6979    3.2945 C.ar      1 <0>        -0.0969
     17 N3          2.9510    5.2373    5.2143 N.pl3     1 <0>        -0.8971
     18 Cl1         2.0014    2.9642    6.8805 Cl        1 <0>        -0.0847
     19 H1          3.2722   -0.5991   -0.0337 H         1 <0>         0.1140
     20 H2          3.3198    1.8853   -0.0201 H         1 <0>         0.1199
     21 H3         -0.9613    1.8355    0.0166 H         1 <0>         0.1697
     22 H4          1.1042   -1.7633   -0.0180 H         1 <0>         0.1337
     23 H5         -0.5972    2.1662    2.8711 H         1 <0>         0.1376
     24 H6          0.1437    1.6579    5.1622 H         1 <0>         0.1305
     25 H7          1.9951    5.5504    2.7692 H         1 <0>         0.1394
     26 H8          3.3644    6.1058    4.6807 H         1 <0>         0.4196
     27 H9          3.2804    5.0140    6.2398 H         1 <0>         0.4134
@<TRIPOS>BOND
     1    1    6 ar
     2    1    2 ar
     3    1   19 1
     4    2    3 ar
     5    2   20 1
     6    3    4 ar
     7    3    7 1
     8    4    5 ar
     9    4   21 1
    10    5    6 ar
    11    6   22 1
    12    7    8 1
    13    8    9 2
    14    8   10 2
    15    8   11 1
    16   11   16 ar
    17   11   12 ar
    18   12   13 ar
    19   12   23 1
    20   13   14 ar
    21   13   24 1
    22   14   15 ar
    23   14   18 1
    24   15   16 ar
    25   15   17 1
    26   16   25 1
    27   17   26 1
    28   17   27 1
@<TRIPOS>MOLECULE
ZINC36743259
   27    28     0     0     0
SMALL
USER_CHARGES

@<TRIPOS>ATOM
      1 C1         -0.0155    1.4111   -0.0151 C.ar      1 <0>        -0.2000
      2 C2          1.1977    2.0828   -0.0266 C.ar      1 <0>         0.0195
      3 C3          2.3655    1.3360   -0.0093 C.ar      1 <0>        -0.6680
      4 C4          2.2824   -0.0435    0.0186 C.ar      1 <0>         0.1921
      5 N1          1.1109   -0.6486    0.0283 N.ar      1 <0>        -0.5026
      6 C5         -0.0201    0.0296    0.0130 C.ar      1 <0>         0.1284
      7 S1          3.9358    2.1351   -0.0233 S.o2      1 <0>         2.6060
      8 O1          4.8635    1.1983   -0.5534 O.2       1 <0>        -1.0254
      9 O2          3.7337    3.4175   -0.6010 O.2       1 <0>        -1.0266
     10 N2          4.3696    2.3898    1.5545 N.2       1 <0>        -1.0686
     11 C6          5.6219    2.9315    1.8560 C.ar      1 <0>         0.3231
     12 C7          6.4463    3.3854    0.8362 C.ar      1 <0>        -0.3275
     13 C8          7.6890    3.9232    1.1398 C.ar      1 <0>         0.2603
     14 C9          8.1045    4.0058    2.4632 C.ar      1 <0>        -0.2824
     15 C10         7.2819    3.5532    3.4769 C.ar      1 <0>        -0.0310
     16 C11         6.0411    3.0217    3.1786 C.ar      1 <0>        -0.1336
     17 Cl1         5.0079    2.4609    4.4560 Cl        1 <0>        -0.0989
     18 N3          8.5220    4.3808    0.1155 N.pl3     1 <0>        -0.8847
     19 H1         -0.9450    1.9610   -0.0235 H         1 <0>         0.1386
     20 H2          1.2319    3.1620   -0.0488 H         1 <0>         0.1473
     21 H3          3.1875   -0.6326    0.0322 H         1 <0>         0.1695
     22 H4         -0.9607   -0.5010    0.0224 H         1 <0>         0.1570
     23 H5          6.1215    3.3199   -0.1917 H         1 <0>         0.1030
     24 H6          9.0717    4.4240    2.6997 H         1 <0>         0.1078
     25 H7          7.6074    3.6182    4.5046 H         1 <0>         0.1143
     26 H8          8.2316    4.3226   -0.8082 H         1 <0>         0.3926
     27 H9          9.3905    4.7566    0.3281 H         1 <0>         0.3900
@<TRIPOS>BOND
     1    1    6 ar
     2    1    2 ar
     3    1   19 1
     4    2    3 ar
     5    2   20 1
     6    3    4 ar
     7    3    7 1
     8    4    5 ar
     9    4   21 1
    10    5    6 ar
    11    6   22 1
    12    7    8 2
    13    7    9 2
    14    7   10 1
    15   10   11 1
    16   11   16 ar
    17   11   12 ar
    18   12   13 ar
    19   12   23 1
    20   13   14 ar
    21   13   18 1
    22   14   15 ar
    23   14   24 1
    24   15   16 ar
    25   15   25 1
    26   16   17 1
    27   18   26 1
    28   18   27 1
@<TRIPOS>MOLECULE
ZINC40572068
   45    46     0     0     0
SMALL
USER_CHARGES

@<TRIPOS>ATOM
      1 C1         -0.0187    1.5258    0.0104 C.3       1 <0>        -0.1451
      2 C2          0.0021   -0.0041    0.0020 C.3       1 <0>        -0.0888
      3 H1         -1.0205   -0.3814    0.0098 H         1 <0>         0.0717
      4 C3          0.7182   -0.4975   -1.2568 C.3       1 <0>        -0.1134
      5 C4          0.7390   -2.0273   -1.2652 C.3       1 <0>        -0.1165
      6 C5          1.4790   -2.5342   -0.0257 C.3       1 <0>        -0.1315
      7 C6          0.7628   -2.0407    1.2331 C.3       1 <0>         0.1714
      8 H2         -0.2598   -2.4180    1.2409 H         1 <0>         0.0820
      9 C7          0.7421   -0.5109    1.2415 C.3       1 <0>        -0.1186
     10 N1          1.4714   -2.5260    2.4200 N.am      1 <0>        -0.7556
     11 C8          1.2068   -3.7544    2.9074 C.2       1 <0>         0.7141
     12 O1          0.3801   -4.4598    2.3622 O.2       1 <0>        -0.5680
     13 N2          1.8587   -4.2009    3.9993 N.am      1 <0>        -0.7172
     14 C9          1.5712   -5.5361    4.5292 C.3       1 <0>         0.1295
     15 C10         0.0943   -5.6229    4.9192 C.3       1 <0>        -0.1130
     16 C11        -0.2134   -4.5727    5.9885 C.3       1 <0>        -0.1120
     17 C12         0.6556   -4.8302    7.2212 C.3       1 <0>        -0.1152
     18 C13         2.1325   -4.7435    6.8312 C.3       1 <0>        -0.1157
     19 C14         2.4401   -5.7936    5.7619 C.3       1 <0>        -0.1053
     20 C15         1.8742   -6.5705    3.4759 C.2       1 <0>         0.5001
     21 O2          2.2917   -6.2244    2.3839 O.co2     1 <0>        -0.6739
     22 O3          1.7019   -7.7534    3.7158 O.co2     1 <0>        -0.7052
     23 H3          1.0039    1.9031    0.0027 H         1 <0>         0.0529
     24 H4         -0.5459    1.8868   -0.8726 H         1 <0>         0.0531
     25 H5         -0.5289    1.8773    0.9072 H         1 <0>         0.0529
     26 H6          0.1910   -0.1364   -2.1398 H         1 <0>         0.0587
     27 H7          1.7408   -0.1202   -1.2645 H         1 <0>         0.0601
     28 H8         -0.2836   -2.4046   -1.2575 H         1 <0>         0.0625
     29 H9          1.2492   -2.3788   -2.1620 H         1 <0>         0.0609
     30 H10         1.4937   -3.6240   -0.0317 H         1 <0>         0.0770
     31 H11         2.5015   -2.1569   -0.0334 H         1 <0>         0.0567
     32 H12         1.7647   -0.1336    1.2338 H         1 <0>         0.0636
     33 H13         0.2319   -0.1594    2.1383 H         1 <0>         0.0644
     34 H14         2.1309   -1.9633    2.8550 H         1 <0>         0.3839
     35 H15         2.5182   -3.6381    4.4344 H         1 <0>         0.3770
     36 H16        -0.5248   -5.4394    4.0410 H         1 <0>         0.0771
     37 H17        -0.1197   -6.6163    5.3134 H         1 <0>         0.0657
     38 H18         0.0005   -3.5793    5.5943 H         1 <0>         0.0540
     39 H19        -1.2656   -4.6345    6.2663 H         1 <0>         0.0498
     40 H20         0.4364   -4.0821    7.9830 H         1 <0>         0.0508
     41 H21         0.4416   -5.8237    7.6154 H         1 <0>         0.0596
     42 H22         2.3464   -3.7500    6.4369 H         1 <0>         0.0543
     43 H23         2.7515   -4.9270    7.7093 H         1 <0>         0.0552
     44 H24         2.2262   -6.7871    6.1561 H         1 <0>         0.0794
     45 H25         3.4923   -5.7318    5.4840 H         1 <0>         0.0568
@<TRIPOS>BOND
     1    1    2 1
     2    1   23 1
     3    1   24 1
     4    1   25 1
     5    2    3 1
     6    2    9 1
     7    2    4 1
     8    4    5 1
     9    4   26 1
    10    4   27 1
    11    5    6 1
    12    5   28 1
    13    5   29 1
    14    6    7 1
    15    6   30 1
    16    6   31 1
    17    7    8 1
    18    7    9 1
    19    7   10 1
    20    9   32 1
    21    9   33 1
    22   10   11 am
    23   10   34 1
    24   11   12 2
    25   11   13 am
    26   13   14 1
    27   13   35 1
    28   14   19 1
    29   14   15 1
    30   14   20 1
    31   15   16 1
    32   15   36 1
    33   15   37 1
    34   16   17 1
    35   16   38 1
    36   16   39 1
    37   17   18 1
    38   17   40 1
    39   17   41 1
    40   18   19 1
    41   18   42 1
    42   18   43 1
    43   19   44 1
    44   19   45 1
    45   20   21 2
    46   20   22 1
@<TRIPOS>MOLECULE
ZINC42334847
   32    33     0     0     0
SMALL
USER_CHARGES

@<TRIPOS>ATOM
      1 C1          0.7781    2.3944   -1.0123 C.3       1 <0>        -0.0748
      2 C2          0.7388    0.9412   -0.6151 C.2       1 <0>         0.0964
      3 C3          0.5088   -0.0183   -1.5521 C.2       1 <0>        -0.2435
      4 S1          0.5725   -1.4912   -0.5400 S.3       1 <0>         0.1340
      5 C4          0.8973   -0.6754    1.0172 C.2       1 <0>         0.3063
      6 N1          0.9328    0.5908    0.6449 N.2       1 <0>        -0.5743
      7 N2          1.0715   -1.2270    2.2804 N.pl3     1 <0>        -0.8059
      8 S2          0.2259    0.1452   -3.2835 S.3       1 <0>         0.0052
      9 C5          0.0033   -1.5620   -3.8550 C.3       1 <0>        -0.1573
     10 C6         -1.1691   -2.1927   -3.1094 C.3       1 <0>        -0.0804
     11 C7         -1.2064   -3.7001   -3.3737 C.3       1 <0>        -0.6001
     12 S3         -1.4949   -3.9793   -5.1461 S.o2      1 <0>         2.4017
     13 O1         -2.7480   -3.4076   -5.4955 O.2       1 <0>        -0.9534
     14 O2         -1.2546   -5.3502   -5.4326 O.2       1 <0>        -0.9550
     15 C8         -0.1752   -2.9871   -5.9053 C.3       1 <0>        -0.5898
     16 C9         -0.2526   -1.5591   -5.3592 C.3       1 <0>        -0.0632
     17 C10         1.2555   -2.3492   -3.5661 C.2       1 <0>         0.5030
     18 O3          1.2825   -3.1295   -2.6297 O.co2     1 <0>        -0.6503
     19 O4          2.2414   -2.2058   -4.2688 O.co2     1 <0>        -0.6556
     20 H1          1.7973    2.6692   -1.2842 H         1 <0>         0.0695
     21 H2          0.1185    2.5560   -1.8649 H         1 <0>         0.0702
     22 H3          0.4471    3.0090   -0.1752 H         1 <0>         0.0680
     23 H4          1.0212   -2.1881    2.4011 H         1 <0>         0.4160
     24 H5          1.2433   -0.6509    3.0416 H         1 <0>         0.4058
     25 H6         -1.0552   -2.0155   -2.0400 H         1 <0>         0.0888
     26 H7         -2.1005   -1.7420   -3.4522 H         1 <0>         0.0783
     27 H8         -0.2545   -4.1452   -3.0842 H         1 <0>         0.1771
     28 H9         -2.0132   -4.1520   -2.7968 H         1 <0>         0.1256
     29 H10         0.7945   -3.4199   -5.6594 H         1 <0>         0.1488
     30 H11        -0.3063   -2.9718   -6.9873 H         1 <0>         0.1314
     31 H12        -1.2431   -1.1493   -5.5569 H         1 <0>         0.0799
     32 H13         0.4979   -0.9417   -5.8528 H         1 <0>         0.0972
@<TRIPOS>BOND
     1    1    2 1
     2    1   20 1
     3    1   21 1
     4    1   22 1
     5    2    6 1
     6    2    3 2
     7    3    4 1
     8    3    8 1
     9    4    5 1
    10    5    6 2
    11    5    7 1
    12    7   23 1
    13    7   24 1
    14    8    9 1
    15    9   16 1
    16    9   10 1
    17    9   17 1
    18   10   11 1
    19   10   25 1
    20   10   26 1
    21   11   12 1
    22   11   27 1
    23   11   28 1
    24   12   13 2
    25   12   14 2
    26   12   15 1
    27   15   16 1
    28   15   29 1
    29   15   30 1
    30   16   31 1
    31   16   32 1
    32   17   18 2
    33   17   19 1
@<TRIPOS>MOLECULE
ZINC51635777
   29    30     0     0     0
SMALL
USER_CHARGES

@<TRIPOS>ATOM
      1 C1         -0.0168    1.3849    0.0097 C.ar      1 <0>        -0.2322
      2 C2          1.1703    2.0912    0.0021 C.ar      1 <0>         0.0429
      3 C3          2.3775    1.4180   -0.0130 C.ar      1 <0>        -0.7120
      4 C4          2.4010    0.0329   -0.0211 C.ar      1 <0>         0.2486
      5 C5          1.2156   -0.6795   -0.0141 C.ar      1 <0>        -0.2607
      6 C6          0.0021   -0.0041    0.0020 C.ar      1 <0>         0.2753
      7 N1         -1.1971   -0.7201    0.0101 N.pl3     1 <0>        -0.8693
      8 F1          3.5824   -0.6223   -0.0364 F         1 <0>        -0.1141
      9 S1          3.8891    2.3233   -0.0226 S.o2      1 <0>         2.6135
     10 O1          4.6880    1.7689   -1.0588 O.2       1 <0>        -1.0207
     11 O2          3.5384    3.6998    0.0152 O.2       1 <0>        -1.0269
     12 N2          4.6663    1.9936    1.4020 N.2       1 <0>        -1.0824
     13 C7          5.9062    2.5803    1.6742 C.ar      1 <0>         0.2740
     14 C8          6.4832    3.4450    0.7506 C.ar      1 <0>        -0.2133
     15 C9          7.7077    4.0281    1.0130 C.ar      1 <0>        -0.0898
     16 C10         8.3686    3.7558    2.1967 C.ar      1 <0>         0.0257
     17 C11         7.7962    2.8875    3.1317 C.ar      1 <0>        -0.0255
     18 C12         6.5557    2.3041    2.8661 C.ar      1 <0>        -0.1064
     19 C13         8.4768    2.6024    4.3589 C.1       1 <0>         0.2771
     20 N3          9.0167    2.3762    5.3325 N.1       1 <0>        -0.4433
     21 F2          9.5662    4.3277    2.4496 F         1 <0>        -0.1524
     22 H1         -0.9591    1.9122    0.0260 H         1 <0>         0.1304
     23 H2          1.1552    3.1711    0.0077 H         1 <0>         0.1480
     24 H3          1.2335   -1.7593   -0.0212 H         1 <0>         0.1361
     25 H4         -2.0441   -0.2475    0.0210 H         1 <0>         0.4016
     26 H5         -1.1829   -1.6900    0.0047 H         1 <0>         0.4004
     27 H6          5.9720    3.6613   -0.1759 H         1 <0>         0.1138
     28 H7          8.1505    4.6985    0.2912 H         1 <0>         0.1279
     29 H8          6.1059    1.6364    3.5860 H         1 <0>         0.1338
@<TRIPOS>BOND
     1    1    6 ar
     2    1    2 ar
     3    1   22 1
     4    2    3 ar
     5    2   23 1
     6    3    4 ar
     7    3    9 1
     8    4    5 ar
     9    4    8 1
    10    5    6 ar
    11    5   24 1
    12    6    7 1
    13    7   25 1
    14    7   26 1
    15    9   10 2
    16    9   11 2
    17    9   12 1
    18   12   13 1
    19   13   18 ar
    20   13   14 ar
    21   14   15 ar
    22   14   27 1
    23   15   16 ar
    24   15   28 1
    25   16   17 ar
    26   16   21 1
    27   17   18 ar
    28   17   19 1
    29   18   29 1
    30   19   20 3
@<TRIPOS>MOLECULE
ZINC13392414
   41    43     0     0     0
SMALL
USER_CHARGES
2-[[4-chloro-3-(2-oxopyrrolidin-1-yl)benzoyl]amino]terephthalic acid
@<TRIPOS>ATOM
      1 C1          2.5315   -6.9770    0.2456 C.ar      1 <0>        -0.1111
      2 C2          3.5712   -6.3097   -0.3619 C.ar      1 <0>        -0.0785
      3 C3          3.5440   -4.9169   -0.4652 C.ar      1 <0>        -0.1549
      4 C4          2.4603   -4.1978    0.0613 C.ar      1 <0>         0.1499
      5 C5          1.4150   -4.8751    0.6725 C.ar      1 <0>        -0.1107
      6 C6          1.4480   -6.2647    0.7663 C.ar      1 <0>        -0.1015
      7 C7          0.3335   -6.9876    1.4181 C.2       1 <0>         0.4965
      8 O1         -0.6088   -6.3696    1.8707 O.co2     1 <0>        -0.6334
      9 N1          2.4313   -2.8094   -0.0345 N.am      1 <0>        -0.6321
     10 C8          1.2516   -2.1577   -0.0241 C.2       1 <0>         0.5361
     11 O2          0.2105   -2.7852   -0.0334 O.2       1 <0>        -0.5170
     12 C9          1.2237   -0.6806   -0.0015 C.ar      1 <0>        -0.1017
     13 C10         2.4186    0.0425    0.0087 C.ar      1 <0>        -0.0609
     14 C11         2.3902    1.4213    0.0299 C.ar      1 <0>        -0.1106
     15 C12         1.1802    2.0929    0.0401 C.ar      1 <0>        -0.0117
     16 C13        -0.0150    1.3815    0.0300 C.ar      1 <0>         0.1350
     17 C14         0.0036   -0.0037    0.0093 C.ar      1 <0>        -0.0402
     18 N2         -1.2368    2.0652    0.0350 N.am      1 <0>        -0.5751
     19 C15        -1.9513    2.4929   -1.1734 C.3       1 <0>         0.1030
     20 C16        -3.3977    2.7881   -0.7120 C.3       1 <0>        -0.1300
     21 C17        -3.1861    3.1321    0.7806 C.3       1 <0>        -0.1505
     22 C18        -1.9032    2.4194    1.1474 C.2       1 <0>         0.5203
     23 O3         -1.5303    2.1992    2.2803 O.2       1 <0>        -0.5144
     24 Cl1         1.1540    3.8285    0.0655 Cl        1 <0>        -0.0663
     25 C19         4.6558   -4.2026   -1.1224 C.2       1 <0>         0.5070
     26 O4          4.6778   -2.9880   -1.1291 O.co2     1 <0>        -0.6469
     27 H1          2.5536   -8.0542    0.3201 H         1 <0>         0.1258
     28 H2          4.4067   -6.8640   -0.7631 H         1 <0>         0.1279
     29 H3          0.5767   -4.3258    1.0748 H         1 <0>         0.1466
     30 H4          3.2601   -2.3109   -0.1086 H         1 <0>         0.4228
     31 H5          3.3648   -0.4781    0.0005 H         1 <0>         0.1525
     32 H6          3.3152    1.9787    0.0384 H         1 <0>         0.1454
     33 H7         -0.9234   -0.5579    0.0018 H         1 <0>         0.1498
     34 H8         -1.4927    3.3923   -1.5844 H         1 <0>         0.0755
     35 H9         -1.9489    1.6946   -1.9155 H         1 <0>         0.0845
     36 H10        -4.0338    1.9100   -0.8236 H         1 <0>         0.0866
     37 H11        -3.8118    3.6386   -1.2535 H         1 <0>         0.0914
     38 H12        -4.0157    2.7569    1.3798 H         1 <0>         0.1042
     39 H13        -3.0756    4.2085    0.9120 H         1 <0>         0.1043
     40 O5          0.3642   -8.3310    1.5094 O.co2     1 <0>        -0.7653
     41 O6          5.6464   -4.8976   -1.7150 O.co2     1 <0>        -0.7521
@<TRIPOS>BOND
     1    1    6 ar
     2    1    2 ar
     3    1   27 1
     4    2    3 ar
     5    2   28 1
     6    3    4 ar
     7    3   25 1
     8    4    5 ar
     9    4    9 1
    10    5    6 ar
    11    5   29 1
    12    6    7 1
    13    7    8 2
    14    7   40 1
    15    9   10 am
    16    9   30 1
    17   10   11 2
    18   10   12 1
    19   12   17 ar
    20   12   13 ar
    21   13   14 ar
    22   13   31 1
    23   14   15 ar
    24   14   32 1
    25   15   16 ar
    26   15   24 1
    27   16   17 ar
    28   16   18 1
    29   17   33 1
    30   18   22 am
    31   18   19 1
    32   19   20 1
    33   19   34 1
    34   19   35 1
    35   20   21 1
    36   20   36 1
    37   20   37 1
    38   21   22 1
    39   21   38 1
    40   21   39 1
    41   22   23 2
    42   25   26 2
    43   25   41 1
@<TRIPOS>MOLECULE
ZINC38633927
   50    50     0     0     0
SMALL
USER_CHARGES

@<TRIPOS>ATOM
      1 C1         -0.0187    1.5262    0.0104 C.3       1 <0>        -0.1535
      2 C2          0.0021   -0.0041    0.0020 C.3       1 <0>        -0.0600
      3 C3          0.5581   -0.5337   -1.3105 C.3       1 <0>        -0.1148
      4 C4          2.0707   -0.4418   -1.4081 C.3       1 <0>         0.1520
      5 H1          2.3732   -1.0280   -2.3054 H         1 <0>         0.0762
      6 C5          2.7546   -1.0805   -0.2125 C.3       1 <0>        -0.1143
      7 C6          2.2409   -0.5784    1.1264 C.3       1 <0>        -0.0509
      8 C7          0.7276   -0.5511    1.2159 C.3       1 <0>        -0.0910
      9 C8          2.7506   -1.5607    2.2108 C.3       1 <0>        -0.1452
     10 C9          2.8382    0.7919    1.4591 C.3       1 <0>        -0.1429
     11 N1          2.5268    0.9247   -1.6370 N.am      1 <0>        -0.7213
     12 C10         3.7136    1.1477   -2.2356 C.2       1 <0>         0.5499
     13 O1          4.4036    0.2104   -2.5844 O.2       1 <0>        -0.5536
     14 C11         4.1759    2.5330   -2.4677 C.2       1 <0>        -0.2124
     15 C12         5.3582    2.7551   -3.0639 C.2       1 <0>        -0.0993
     16 C13         5.8192    4.1363   -3.2953 C.2       1 <0>         0.5049
     17 O2          5.1248    5.0796   -2.9443 O.co2     1 <0>        -0.6822
     18 O3          6.8960    4.3386   -3.8384 O.co2     1 <0>        -0.6871
     19 C14        -1.4723   -0.4705    0.0954 C.3       1 <0>         0.1265
     20 N2         -2.2217    0.0465   -1.0524 N.am      1 <0>        -0.7296
     21 C15        -3.5335   -0.2341   -1.1824 C.2       1 <0>         0.5486
     22 O4         -4.0946   -0.9159   -0.3477 O.2       1 <0>        -0.5569
     23 C16        -4.2900    0.2878   -2.3410 C.2       1 <0>        -0.2126
     24 C17        -5.5968    0.0083   -2.4705 C.2       1 <0>        -0.0994
     25 C18        -6.3510    0.5287   -3.6257 C.2       1 <0>         0.5046
     26 O5         -5.7863    1.2148   -4.4657 O.co2     1 <0>        -0.6811
     27 O6         -7.5412    0.2741   -3.7436 O.co2     1 <0>        -0.6873
     28 H2          1.0039    1.9034    0.0027 H         1 <0>         0.0643
     29 H3         -0.5459    1.8872   -0.8726 H         1 <0>         0.0612
     30 H4         -0.5289    1.8777    0.9072 H         1 <0>         0.0621
     31 H5          0.2531   -1.5821   -1.4301 H         1 <0>         0.0796
     32 H6          0.1098    0.0291   -2.1406 H         1 <0>         0.0720
     33 H7          2.6184   -2.1700   -0.2613 H         1 <0>         0.0658
     34 H8          3.8354   -0.8905   -0.2741 H         1 <0>         0.0700
     35 H9          0.4368    0.0429    2.0981 H         1 <0>         0.0632
     36 H10         0.3677   -1.5756    1.4090 H         1 <0>         0.0616
     37 H11         3.8404   -1.5792    2.2009 H         1 <0>         0.0527
     38 H12         2.4016   -1.2337    3.1902 H         1 <0>         0.0516
     39 H13         2.3684   -2.5604    2.0040 H         1 <0>         0.0517
     40 H14         2.5596    1.5072    0.6853 H         1 <0>         0.0623
     41 H15         2.4560    1.1308    2.4220 H         1 <0>         0.0506
     42 H16         3.9243    0.7129    1.5068 H         1 <0>         0.0521
     43 H17         1.9759    1.6730   -1.3585 H         1 <0>         0.3979
     44 H18         3.5626    3.3661   -2.1576 H         1 <0>         0.1308
     45 H19         5.9716    1.9220   -3.3740 H         1 <0>         0.1109
     46 H20        -1.5096   -1.5599    0.0928 H         1 <0>         0.0635
     47 H21        -1.9148   -0.0941    1.0176 H         1 <0>         0.0641
     48 H22        -1.7738    0.5907   -1.7187 H         1 <0>         0.4015
     49 H23        -3.7912    0.8938   -3.0829 H         1 <0>         0.1323
     50 H24        -6.0955   -0.5977   -1.7286 H         1 <0>         0.1107
@<TRIPOS>BOND
     1    1    2 1
     2    1   28 1
     3    1   29 1
     4    1   30 1
     5    2    8 1
     6    2    3 1
     7    2   19 1
     8    3    4 1
     9    3   31 1
    10    3   32 1
    11    4    5 1
    12    4    6 1
    13    4   11 1
    14    6    7 1
    15    6   33 1
    16    6   34 1
    17    7    8 1
    18    7    9 1
    19    7   10 1
    20    8   35 1
    21    8   36 1
    22    9   37 1
    23    9   38 1
    24    9   39 1
    25   10   40 1
    26   10   41 1
    27   10   42 1
    28   11   12 am
    29   11   43 1
    30   12   13 2
    31   12   14 1
    32   14   15 2
    33   14   44 1
    34   15   16 1
    35   15   45 1
    36   16   17 2
    37   16   18 1
    38   19   20 1
    39   19   46 1
    40   19   47 1
    41   20   21 am
    42   20   48 1
    43   21   22 2
    44   21   23 1
    45   23   24 2
    46   23   49 1
    47   24   25 1
    48   24   50 1
    49   25   26 2
    50   25   27 1
@<TRIPOS>MOLECULE
ZINC47318211
   33    34     0     0     0
SMALL
USER_CHARGES

@<TRIPOS>ATOM
      1 C1          2.4450   -1.7022    1.5325 C.3       1 <0>        -0.1552
      2 C2          1.1803   -1.5374    0.7297 C.ar      1 <0>         0.0160
      3 C3          0.6816   -2.6002   -0.0005 C.ar      1 <0>        -0.1140
      4 C4         -0.4783   -2.4490   -0.7368 C.ar      1 <0>        -0.0805
      5 C5         -1.1401   -1.2351   -0.7427 C.ar      1 <0>        -0.1001
      6 C6         -0.6420   -0.1729   -0.0120 C.ar      1 <0>         0.0598
      7 C7          0.5159   -0.3254    0.7279 C.ar      1 <0>        -0.5748
      8 S1          1.1476    1.0270    1.6642 S.o2      1 <0>         2.5705
      9 O1          2.3812    0.5942    2.2213 O.2       1 <0>        -1.0190
     10 O2          1.0478    2.1768    0.8352 O.2       1 <0>        -1.0211
     11 N1          0.1134    1.2683    2.9348 N.2       1 <0>        -1.0494
     12 C8          0.3652    2.2881    3.8570 C.ar      1 <0>         0.2637
     13 C9          1.4813    3.1035    3.7038 C.ar      1 <0>        -0.2589
     14 C10         1.7361    4.1134    4.6117 C.ar      1 <0>        -0.0827
     15 C11         0.8836    4.3207    5.6789 C.ar      1 <0>        -0.0876
     16 C12        -0.2417    3.5068    5.8418 C.ar      1 <0>        -0.0979
     17 C13        -0.5004    2.4896    4.9197 C.ar      1 <0>        -0.1214
     18 C14        -1.1542    3.7241    6.9797 C.2       1 <0>         0.5230
     19 O3         -2.1377    3.0107    7.1198 O.co2     1 <0>        -0.7007
     20 O4         -0.9275    4.6178    7.7833 O.co2     1 <0>        -0.6780
     21 Cl1         1.2094    5.5904    6.8170 Cl        1 <0>        -0.0937
     22 N2         -1.3501    1.1269   -0.0188 N.pl3     1 <0>         0.0071
     23 O5         -1.8650    1.5295   -1.0360 O.2       1 <0>        -0.1931
     24 O6         -1.4137    1.7859    0.9927 O.3       1 <0>        -0.0462
     25 H1          2.1923   -1.8467    2.5829 H         1 <0>         0.0927
     26 H2          2.9958   -2.5696    1.1686 H         1 <0>         0.0598
     27 H3          3.0615   -0.8096    1.4266 H         1 <0>         0.1316
     28 H4          1.1985   -3.5484    0.0041 H         1 <0>         0.1407
     29 H5         -0.8675   -3.2790   -1.3077 H         1 <0>         0.1434
     30 H6         -2.0460   -1.1167   -1.3186 H         1 <0>         0.1458
     31 H7          2.1519    2.9465    2.8719 H         1 <0>         0.0927
     32 H8          2.6049    4.7427    4.4868 H         1 <0>         0.1021
     33 H9         -1.3697    1.8597    5.0375 H         1 <0>         0.1250
@<TRIPOS>BOND
     1    1    2 1
     2    1   25 1
     3    1   26 1
     4    1   27 1
     5    2    7 ar
     6    2    3 ar
     7    3    4 ar
     8    3   28 1
     9    4    5 ar
    10    4   29 1
    11    5    6 ar
    12    5   30 1
    13    6    7 ar
    14    6   22 1
    15    7    8 1
    16    8    9 2
    17    8   10 2
    18    8   11 1
    19   11   12 1
    20   12   17 ar
    21   12   13 ar
    22   13   14 ar
    23   13   31 1
    24   14   15 ar
    25   14   32 1
    26   15   16 ar
    27   15   21 1
    28   16   17 ar
    29   16   18 1
    30   17   33 1
    31   18   19 2
    32   18   20 1
    33   22   23 2
    34   22   24 1
@<TRIPOS>MOLECULE
ZINC59135007
   35    37     0     0     0
SMALL
USER_CHARGES

@<TRIPOS>ATOM
      1 C1          0.4167   -0.2527   -2.5774 C.ar      1 <0>        -0.0763
      2 C2          1.5637    0.4190   -2.9527 C.ar      1 <0>        -0.1444
      3 C3          2.2065    1.2506   -2.0512 C.ar      1 <0>         0.0828
      4 C4          1.7010    1.4104   -0.7719 C.ar      1 <0>        -0.1460
      5 C5          0.5541    0.7407   -0.3930 C.ar      1 <0>        -0.0705
      6 C6         -0.0918   -0.0934   -1.2955 C.ar      1 <0>         0.1578
      7 N1         -1.2563   -0.7741   -0.9127 N.am      1 <0>        -0.5540
      8 C7         -1.2225   -2.1157   -0.7637 C.2       1 <0>         0.5639
      9 O1         -0.1984   -2.7442   -0.9556 O.2       1 <0>        -0.5034
     10 C8         -2.4698   -2.7945   -0.3596 C.2       1 <0>        -0.3018
     11 C9         -2.5226   -4.1682   -0.1838 C.2       1 <0>         0.1446
     12 C10        -1.3277   -4.9311   -0.1968 C.ar      1 <0>        -0.2260
     13 C11        -0.2226   -4.5275    0.5692 C.ar      1 <0>         0.0682
     14 C12         0.9333   -5.2746    0.5502 C.ar      1 <0>        -0.1549
     15 C13         1.0124   -6.4254   -0.2226 C.ar      1 <0>         0.0222
     16 C14        -0.0655   -6.8355   -0.9819 C.ar      1 <0>        -0.1939
     17 C15        -1.2422   -6.1026   -0.9737 C.ar      1 <0>         0.3386
     18 O2         -2.3030   -6.5084   -1.7141 O.3       1 <0>        -0.6211
     19 N2          0.0335   -8.0642   -1.8014 N.pl3     1 <0>         0.0754
     20 O3          1.0572   -8.7074   -1.8053 O.2       1 <0>        -0.2624
     21 O4         -0.9094   -8.4246   -2.4668 O.3       1 <0>        -0.1580
     22 Cl1         2.2999   -4.7750    1.4971 Cl        1 <0>        -0.0985
     23 C16        -3.6540   -1.9464   -0.1516 C.2       1 <0>         0.5086
     24 O5         -4.8337   -2.4869    0.2191 O.3       1 <0>        -0.6439
     25 N3         -3.5356   -0.6427   -0.3357 N.2       1 <0>        -0.6731
     26 C17        -2.3837   -0.0813   -0.6954 C.2       1 <0>         0.6711
     27 O6         -2.3533    1.1278   -0.8405 O.2       1 <0>        -0.5826
     28 F1          3.3286    1.9065   -2.4200 F         1 <0>        -0.1479
     29 H1         -0.0867   -0.8979   -3.2821 H         1 <0>         0.1311
     30 H2          1.9596    0.2954   -3.9499 H         1 <0>         0.1341
     31 H3          2.2042    2.0588   -0.0699 H         1 <0>         0.1340
     32 H4          0.1601    0.8656    0.6048 H         1 <0>         0.1319
     33 H5         -3.4741   -4.6576   -0.0369 H         1 <0>         0.1442
     34 H6         -0.2791   -3.6330    1.1717 H         1 <0>         0.1186
     35 H7          1.9242   -7.0041   -0.2302 H         1 <0>         0.1316
@<TRIPOS>BOND
     1    1    6 ar
     2    1    2 ar
     3    1   29 1
     4    2    3 ar
     5    2   30 1
     6    3    4 ar
     7    3   28 1
     8    4    5 ar
     9    4   31 1
    10    5    6 ar
    11    5   32 1
    12    6    7 1
    13    7   26 am
    14    7    8 am
    15    8    9 2
    16    8   10 1
    17   10   11 2
    18   10   23 1
    19   11   12 1
    20   11   33 1
    21   12   17 ar
    22   12   13 ar
    23   13   14 ar
    24   13   34 1
    25   14   15 ar
    26   14   22 1
    27   15   16 ar
    28   15   35 1
    29   16   17 ar
    30   16   19 1
    31   17   18 1
    32   19   20 2
    33   19   21 1
    34   23   24 1
    35   23   25 2
    36   25   26 1
    37   26   27 2
@<TRIPOS>MOLECULE
ZINC64477735
   38    40     0     0     0
SMALL
USER_CHARGES

@<TRIPOS>ATOM
      1 C1         -0.0178    1.4608    0.0101 C.3       1 <0>         0.1079
      2 N1          0.0021   -0.0041    0.0020 N.am      1 <0>        -0.5378
      3 C2         -1.1179   -0.8364    0.0026 C.ar      1 <0>        -0.0322
      4 C3         -2.4829   -0.5924    0.0109 C.ar      1 <0>        -0.0442
      5 C4         -3.3717   -1.6486    0.0090 C.ar      1 <0>        -0.2452
      6 C5         -2.9027   -2.9576   -0.0007 C.ar      1 <0>         0.3025
      7 C6         -1.5386   -3.2083   -0.0089 C.ar      1 <0>        -0.1808
      8 C7         -0.6436   -2.1496   -0.0075 C.ar      1 <0>         0.1348
      9 N2          0.7473   -2.0755   -0.0140 N.am      1 <0>        -0.5452
     10 C8          1.1040   -0.7774   -0.0131 C.2       1 <0>         0.6751
     11 O1          2.2491   -0.3655   -0.0224 O.2       1 <0>        -0.5953
     12 C9          1.6660   -3.2166   -0.0253 C.3       1 <0>         0.1069
     13 N3         -3.8085   -4.0238   -0.0016 N.2       1 <0>        -1.0749
     14 S1         -5.4375   -3.7263    0.0088 S.o2      1 <0>         2.6132
     15 O2         -5.7313   -3.1183    1.2591 O.2       1 <0>        -1.0270
     16 O3         -5.7448   -3.1047   -1.2315 O.2       1 <0>        -1.0202
     17 C10        -6.2524   -5.2886    0.0047 C.ar      1 <0>        -0.6325
     18 C11        -7.0169   -5.6684    1.0873 C.ar      1 <0>         0.0149
     19 C12        -7.6626   -6.9078    1.0823 C.ar      1 <0>        -0.1583
     20 C13        -7.5283   -7.7545   -0.0217 C.ar      1 <0>        -0.0382
     21 C14        -6.7610   -7.3627   -1.0975 C.ar      1 <0>        -0.1564
     22 C15        -6.1280   -6.1300   -1.0887 C.ar      1 <0>         0.0543
     23 Cl1        -5.1692   -5.6411   -2.4507 Cl        1 <0>        -0.0559
     24 C16        -8.4815   -7.3207    2.2370 C.2       1 <0>         0.5260
     25 O4         -8.5969   -6.5779    3.2018 O.co2     1 <0>        -0.6809
     26 O5         -9.0454   -8.4060    2.2299 O.co2     1 <0>        -0.6925
     27 H1          1.0048    1.8381    0.0023 H         1 <0>         0.0817
     28 H2         -0.5450    1.8219   -0.8730 H         1 <0>         0.0639
     29 H3         -0.5280    1.8123    0.9069 H         1 <0>         0.0645
     30 H4         -2.8503    0.4232    0.0191 H         1 <0>         0.1097
     31 H5         -4.4347   -1.4577    0.0154 H         1 <0>         0.1091
     32 H6         -1.1747   -4.2251   -0.0161 H         1 <0>         0.1202
     33 H7          1.8887   -3.4935   -1.0558 H         1 <0>         0.0598
     34 H8          2.5896   -2.9445    0.4855 H         1 <0>         0.0756
     35 H9          1.2031   -4.0608    0.4858 H         1 <0>         0.0820
     36 H10        -7.1164   -5.0097    1.9374 H         1 <0>         0.1504
     37 H11        -8.0244   -8.7138   -0.0316 H         1 <0>         0.1367
     38 H12        -6.6561   -8.0161   -1.9510 H         1 <0>         0.1282
@<TRIPOS>BOND
     1    1    2 1
     2    1   27 1
     3    1   28 1
     4    1   29 1
     5    2   10 am
     6    2    3 1
     7    3    8 ar
     8    3    4 ar
     9    4    5 ar
    10    4   30 1
    11    5    6 ar
    12    5   31 1
    13    6    7 ar
    14    6   13 1
    15    7    8 ar
    16    7   32 1
    17    8    9 1
    18    9   10 am
    19    9   12 1
    20   10   11 2
    21   12   33 1
    22   12   34 1
    23   12   35 1
    24   13   14 1
    25   14   15 2
    26   14   16 2
    27   14   17 1
    28   17   22 ar
    29   17   18 ar
    30   18   19 ar
    31   18   36 1
    32   19   20 ar
    33   19   24 1
    34   20   21 ar
    35   20   37 1
    36   21   22 ar
    37   21   38 1
    38   22   23 1
    39   24   25 2
    40   24   26 1
@<TRIPOS>MOLECULE
ZINC36974364
   37    38     0     0     0
SMALL
USER_CHARGES

@<TRIPOS>ATOM
      1 C1         -0.0199    1.5292    0.0128 C.3       1 <0>        -0.1327
      2 C2          1.4170    2.0557    0.0025 C.3       1 <0>        -0.1002
      3 C3          2.1473    1.5749    1.2586 C.3       1 <0>        -0.1130
      4 H1          1.6173    1.9255    2.1442 H         1 <0>         0.0905
      5 C4          2.1934    0.0437    1.2630 C.3       1 <0>         0.1331
      6 N1          0.8240   -0.4711    1.1269 N.am      1 <0>        -0.6248
      7 C5          0.0016   -0.0025    0.0031 C.3       1 <0>         0.1090
      8 C6          0.3317   -1.3565    2.0158 C.2       1 <0>         0.7081
      9 O1          1.0503   -1.8066    2.8872 O.2       1 <0>        -0.5906
     10 N2         -0.9571   -1.7431    1.9387 N.am      1 <0>        -0.8708
     11 C7          3.5518    2.1211    1.2639 C.2       1 <0>         0.5379
     12 O2          3.9319    2.8257    0.3529 O.2       1 <0>        -0.5287
     13 N3          4.3855    1.8266    2.2811 N.am      1 <0>        -0.5887
     14 C8          4.0577    0.9811    3.4435 C.3       1 <0>         0.0995
     15 C9          5.0322    1.4415    4.5562 C.3       1 <0>        -0.1329
     16 C10         6.3212    1.7290    3.7419 C.3       1 <0>        -0.1068
     17 C11         5.7746    2.2900    2.4121 C.3       1 <0>         0.0650
     18 H2          5.8015    3.3795    2.4326 H         1 <0>         0.0658
     19 C12         6.5974    1.7758    1.2590 C.2       1 <0>         0.4974
     20 O3          7.7285    2.1951    1.0824 O.co2     1 <0>        -0.7025
     21 O4          6.1319    0.9404    0.5027 O.co2     1 <0>        -0.6791
     22 H3         -0.5295    1.8802    0.9101 H         1 <0>         0.0659
     23 H4         -0.5464    1.8912   -0.8703 H         1 <0>         0.0785
     24 H5          1.9336    1.6841   -0.8825 H         1 <0>         0.0758
     25 H6          1.4044    3.1454   -0.0155 H         1 <0>         0.0739
     26 H7          2.7999   -0.3060    0.4276 H         1 <0>         0.0789
     27 H8          2.6237   -0.3062    2.2014 H         1 <0>         0.1046
     28 H9         -1.0142   -0.3830    0.1102 H         1 <0>         0.0754
     29 H10         0.4294   -0.3560   -0.9350 H         1 <0>         0.0732
     30 H11        -1.5106   -1.4418    1.2013 H         1 <0>         0.3943
     31 H12        -1.3313   -2.3226    2.6207 H         1 <0>         0.4116
     32 H13         3.0251    1.1444    3.7521 H         1 <0>         0.0677
     33 H14         4.2219   -0.0700    3.2064 H         1 <0>         0.0691
     34 H15         4.6686    2.3457    5.0444 H         1 <0>         0.0701
     35 H16         5.1985    0.6467    5.2833 H         1 <0>         0.0783
     36 H17         6.9410    2.4682    4.2493 H         1 <0>         0.0747
     37 H18         6.8803    0.8097    3.5676 H         1 <0>         0.0721
@<TRIPOS>BOND
     1    1    7 1
     2    1    2 1
     3    1   22 1
     4    1   23 1
     5    2    3 1
     6    2   24 1
     7    2   25 1
     8    3    4 1
     9    3    5 1
    10    3   11 1
    11    5    6 1
    12    5   26 1
    13    5   27 1
    14    6    7 1
    15    6    8 am
    16    7   28 1
    17    7   29 1
    18    8    9 2
    19    8   10 am
    20   10   30 1
    21   10   31 1
    22   11   12 2
    23   11   13 am
    24   13   17 1
    25   13   14 1
    26   14   15 1
    27   14   32 1
    28   14   33 1
    29   15   16 1
    30   15   34 1
    31   15   35 1
    32   16   17 1
    33   16   36 1
    34   16   37 1
    35   17   18 1
    36   17   19 1
    37   19   20 2
    38   19   21 1
@<TRIPOS>MOLECULE
ZINC37432025
   38    38     0     0     0
SMALL
USER_CHARGES

@<TRIPOS>ATOM
      1 C1         -0.0187    1.5258    0.0104 C.3       1 <0>        -0.1811
      2 C2          0.0021   -0.0041    0.0020 C.3       1 <0>         0.1098
      3 H1          0.5123   -0.3556   -0.8948 H         1 <0>         0.0546
      4 C3         -1.4333   -0.5336    0.0129 C.3       1 <0>         0.0801
      5 H2         -1.9435   -0.1821    0.9097 H         1 <0>         0.0876
      6 C4         -1.4129   -2.0405    0.0046 C.2       1 <0>         0.4976
      7 O1         -1.3945   -2.6557    1.0571 O.co2     1 <0>        -0.6811
      8 O2         -1.4147   -2.6444   -1.0546 O.co2     1 <0>        -0.6950
      9 N1         -2.1419   -0.0483   -1.1740 N.am      1 <0>        -0.6890
     10 C5         -3.4850    0.0621   -1.1588 C.2       1 <0>         0.5174
     11 O3         -4.1071   -0.2403   -0.1625 O.2       1 <0>        -0.5344
     12 C6         -4.2139    0.5613   -2.3797 C.3       1 <0>        -0.1229
     13 H3         -3.8774    1.5621   -2.6503 H         1 <0>         0.1204
     14 C7         -4.0451   -0.4184   -3.5641 C.3       1 <0>        -0.1498
     15 C8         -5.2549   -1.3222   -3.4732 C.2       1 <0>         0.5242
     16 O4         -5.3674   -2.3908   -4.0357 O.2       1 <0>        -0.5264
     17 N2         -6.1867   -0.7688   -2.6780 N.am      1 <0>        -0.6130
     18 C9         -5.7429    0.5323   -2.1611 C.3       1 <0>         0.1183
     19 C10        -7.4791   -1.3844   -2.3668 C.3       1 <0>         0.1561
     20 C11        -8.2665   -1.5991   -3.6609 C.3       1 <0>        -0.1648
     21 C12        -7.2499   -2.7320   -1.6797 C.3       1 <0>        -0.1705
     22 O5          0.6932   -0.4774    1.1597 O.3       1 <0>        -0.5414
     23 H4          1.0039    1.9031    0.0027 H         1 <0>         0.0536
     24 H5         -0.5459    1.8868   -0.8726 H         1 <0>         0.0622
     25 H6         -0.5289    1.8773    0.9072 H         1 <0>         0.0616
     26 H7         -1.6443    0.1935   -1.9708 H         1 <0>         0.3919
     27 H8         -4.0438    0.1233   -4.5099 H         1 <0>         0.1106
     28 H9         -3.1278   -0.9965   -3.4532 H         1 <0>         0.1146
     29 H10        -5.9738    0.6156   -1.0991 H         1 <0>         0.0959
     30 H11        -6.2186    1.3410   -2.7159 H         1 <0>         0.0757
     31 H12        -8.0431   -0.7293   -1.7028 H         1 <0>         0.0853
     32 H13        -7.7026   -2.2542   -4.3249 H         1 <0>         0.0711
     33 H14        -9.2282   -2.0572   -3.4294 H         1 <0>         0.0644
     34 H15        -8.4299   -0.6390   -4.1505 H         1 <0>         0.0532
     35 H16        -6.6889   -2.5790   -0.7577 H         1 <0>         0.0632
     36 H17        -8.2115   -3.1901   -1.4482 H         1 <0>         0.0627
     37 H18        -6.6859   -3.3871   -2.3437 H         1 <0>         0.0707
     38 H19         1.6114   -0.1800    1.2187 H         1 <0>         0.3664
@<TRIPOS>BOND
     1    1    2 1
     2    1   23 1
     3    1   24 1
     4    1   25 1
     5    2    3 1
     6    2    4 1
     7    2   22 1
     8    4    5 1
     9    4    6 1
    10    4    9 1
    11    6    7 2
    12    6    8 1
    13    9   10 am
    14    9   26 1
    15   10   11 2
    16   10   12 1
    17   12   13 1
    18   12   18 1
    19   12   14 1
    20   14   15 1
    21   14   27 1
    22   14   28 1
    23   15   16 2
    24   15   17 am
    25   17   18 1
    26   17   19 1
    27   18   29 1
    28   18   30 1
    29   19   20 1
    30   19   21 1
    31   19   31 1
    32   20   32 1
    33   20   33 1
    34   20   34 1
    35   21   35 1
    36   21   36 1
    37   21   37 1
    38   22   38 1
@<TRIPOS>MOLECULE
ZINC40557256
   41    42     0     0     0
SMALL
USER_CHARGES

@<TRIPOS>ATOM
      1 C1         -0.2604    1.9033   -1.2909 C.3       1 <0>        -0.1169
      2 C2          1.1631    2.4647   -1.2688 C.3       1 <0>        -0.1346
      3 C3          2.0996    1.5002   -2.0032 C.3       1 <0>         0.0627
      4 N1          1.9681    0.1651   -1.4040 N.am      1 <0>        -0.6257
      5 C4          0.6296   -0.4307   -1.2930 C.3       1 <0>         0.1726
      6 H1          0.2356   -0.6320   -2.2892 H         1 <0>         0.0669
      7 C5         -0.2904    0.5556   -0.5666 C.3       1 <0>        -0.1342
      8 C6          0.7137   -1.7370   -0.5010 C.3       1 <0>        -0.1177
      9 C7         -0.6895   -2.3237   -0.3345 C.3       1 <0>         0.0713
     10 O1         -0.6254   -3.4828    0.4988 O.3       1 <0>        -0.5683
     11 C8          3.0546   -0.5006   -0.9648 C.2       1 <0>         0.7339
     12 O2          2.9681   -1.6763   -0.6674 O.2       1 <0>        -0.5678
     13 N2          4.2369    0.1371   -0.8554 N.am      1 <0>        -0.6042
     14 C9          4.4371    1.5955   -0.9341 C.3       1 <0>         0.0713
     15 C10         5.7532    1.8575   -0.1601 C.3       1 <0>         0.0868
     16 H2          5.5751    1.8866    0.9148 H         1 <0>         0.0721
     17 C11         6.5967    0.6152   -0.5507 C.3       1 <0>        -0.1004
     18 C12         5.5398   -0.5062   -0.6313 C.3       1 <0>         0.0858
     19 H3          5.5203   -1.0677    0.3027 H         1 <0>         0.0718
     20 C13         5.8607   -1.4276   -1.7799 C.2       1 <0>         0.4982
     21 O3          5.4388   -1.1797   -2.8966 O.co2     1 <0>        -0.6856
     22 O4          6.5423   -2.4210   -1.5924 O.co2     1 <0>        -0.6941
     23 O5          6.3782    3.0628   -0.6058 O.3       1 <0>        -0.5541
     24 H4         -0.9332    2.5997   -0.7903 H         1 <0>         0.0612
     25 H5         -0.5812    1.7677   -2.3238 H         1 <0>         0.0630
     26 H6          1.1792    3.4354   -1.7643 H         1 <0>         0.0713
     27 H7          1.4938    2.5774   -0.2362 H         1 <0>         0.0631
     28 H8          1.8255    1.4562   -3.0572 H         1 <0>         0.0610
     29 H9          3.1291    1.8448   -1.9053 H         1 <0>         0.1234
     30 H10         0.0539    0.6862    0.4593 H         1 <0>         0.0661
     31 H11        -1.3089    0.1674   -0.5623 H         1 <0>         0.0721
     32 H12         1.3432   -2.4471   -1.0372 H         1 <0>         0.1109
     33 H13         1.1438   -1.5395    0.4809 H         1 <0>         0.0734
     34 H14        -1.3416   -1.5811    0.1254 H         1 <0>         0.0395
     35 H15        -1.0860   -2.6001   -1.3115 H         1 <0>         0.0399
     36 H16        -1.4811   -3.9078    0.6480 H         1 <0>         0.3716
     37 H17         4.5392    1.9089   -1.9731 H         1 <0>         0.0806
     38 H18         3.6071    2.1185   -0.4590 H         1 <0>         0.0742
     39 H19         7.0798    0.7651   -1.5162 H         1 <0>         0.0845
     40 H20         7.3343    0.3921    0.2202 H         1 <0>         0.0813
     41 H21         5.8429    3.8567   -0.4708 H         1 <0>         0.3732
@<TRIPOS>BOND
     1    1    7 1
     2    1    2 1
     3    1   24 1
     4    1   25 1
     5    2    3 1
     6    2   26 1
     7    2   27 1
     8    3    4 1
     9    3   28 1
    10    3   29 1
    11    4    5 1
    12    4   11 am
    13    5    6 1
    14    5    7 1
    15    5    8 1
    16    7   30 1
    17    7   31 1
    18    8    9 1
    19    8   32 1
    20    8   33 1
    21    9   10 1
    22    9   34 1
    23    9   35 1
    24   10   36 1
    25   11   12 2
    26   11   13 am
    27   13   18 1
    28   13   14 1
    29   14   15 1
    30   14   37 1
    31   14   38 1
    32   15   16 1
    33   15   17 1
    34   15   23 1
    35   17   18 1
    36   17   39 1
    37   17   40 1
    38   18   19 1
    39   18   20 1
    40   20   21 2
    41   20   22 1
    42   23   41 1
@<TRIPOS>MOLECULE
ZINC42453550
   37    37     0     0     0
SMALL
USER_CHARGES

@<TRIPOS>ATOM
      1 C1          0.0439    1.6594   -0.5372 C.3       1 <0>        -0.1521
      2 C2         -0.0506    0.1351   -0.4460 C.3       1 <0>        -0.1510
      3 C3          0.8865   -0.4967   -1.4773 C.3       1 <0>         0.0777
      4 N1          0.9069   -1.9499   -1.2930 N.am      1 <0>        -0.6293
      5 C4         -0.1280   -2.7814   -1.9124 C.3       1 <0>         0.1385
      6 C5          0.3293   -3.2091   -3.3085 C.3       1 <0>         0.0583
      7 O1          1.4761   -4.0542   -3.1960 O.3       1 <0>        -0.5373
      8 C6          1.8778   -2.5218   -0.5536 C.2       1 <0>         0.7293
      9 O2          1.9760   -3.7330   -0.5111 O.2       1 <0>        -0.5526
     10 N2          2.7400   -1.7512    0.1388 N.am      1 <0>        -0.6020
     11 C7          2.7284   -0.2778    0.1857 C.3       1 <0>         0.0419
     12 C8          3.4349    0.0822    1.5165 C.3       1 <0>         0.0849
     13 H1          2.7483   -0.0028    2.3588 H         1 <0>         0.0694
     14 C9          4.5390   -1.0056    1.5871 C.3       1 <0>        -0.1005
     15 C10         3.8438   -2.2410    0.9774 C.3       1 <0>         0.0867
     16 H2          3.4522   -2.8776    1.7708 H         1 <0>         0.0673
     17 C11         4.8247   -3.0135    0.1336 C.2       1 <0>         0.5009
     18 O3          4.9757   -2.7271   -1.0418 O.co2     1 <0>        -0.6819
     19 O4          5.4675   -3.9248    0.6264 O.co2     1 <0>        -0.6993
     20 O5          4.0067    1.3903    1.4554 O.3       1 <0>        -0.5545
     21 H3          1.0686    1.9725   -0.3369 H         1 <0>         0.0577
     22 H4         -0.2458    1.9822   -1.5372 H         1 <0>         0.0570
     23 H5         -0.6237    2.1095    0.1975 H         1 <0>         0.0569
     24 H6          0.2390   -0.1877    0.5540 H         1 <0>         0.0721
     25 H7         -1.0753   -0.1780   -0.6463 H         1 <0>         0.0659
     26 H8          0.5325   -0.2627   -2.4813 H         1 <0>         0.0668
     27 H9          1.8929   -0.0995   -1.3451 H         1 <0>         0.1072
     28 H10        -0.2986   -3.6662   -1.2990 H         1 <0>         0.0859
     29 H11        -1.0532   -2.2107   -1.9921 H         1 <0>         0.0815
     30 H12        -0.4754   -3.7526   -3.8037 H         1 <0>         0.0431
     31 H13         0.5849   -2.3257   -3.8935 H         1 <0>         0.0373
     32 H14         1.8211   -4.3640   -4.0445 H         1 <0>         0.3673
     33 H15         3.2801    0.1330   -0.6599 H         1 <0>         0.0699
     34 H16         1.7037    0.0937    0.1876 H         1 <0>         0.1036
     35 H17         5.4058   -0.7144    0.9939 H         1 <0>         0.0831
     36 H18         4.8251   -1.1981    2.6212 H         1 <0>         0.0791
     37 H19         3.3608    2.0957    1.3129 H         1 <0>         0.3712
@<TRIPOS>BOND
     1    1    2 1
     2    1   21 1
     3    1   22 1
     4    1   23 1
     5    2    3 1
     6    2   24 1
     7    2   25 1
     8    3    4 1
     9    3   26 1
    10    3   27 1
    11    4    5 1
    12    4    8 am
    13    5    6 1
    14    5   28 1
    15    5   29 1
    16    6    7 1
    17    6   30 1
    18    6   31 1
    19    7   32 1
    20    8    9 2
    21    8   10 am
    22   10   15 1
    23   10   11 1
    24   11   12 1
    25   11   33 1
    26   11   34 1
    27   12   13 1
    28   12   14 1
    29   12   20 1
    30   14   15 1
    31   14   35 1
    32   14   36 1
    33   15   16 1
    34   15   17 1
    35   17   18 2
    36   17   19 1
    37   20   37 1
@<TRIPOS>MOLECULE
ZINC55174562
   30    31     0     0     0
SMALL
USER_CHARGES

@<TRIPOS>ATOM
      1 C1         -0.0184    1.5028    0.0103 C.3       1 <0>        -0.0865
      2 C2          0.0021   -0.0041    0.0020 C.2       1 <0>         0.1820
      3 C3          0.0061   -0.7290   -1.1812 C.2       1 <0>        -0.2851
      4 S1          0.0326   -2.3973   -0.5447 S.3       1 <0>         0.1142
      5 C4          0.0358   -2.0215    1.0957 C.2       1 <0>         0.3010
      6 N1          0.0225   -0.7001    1.1108 N.2       1 <0>        -0.5928
      7 N2          0.0533   -2.8865    2.1688 N.pl3     1 <0>        -0.7991
      8 C5         -0.0082   -0.2577   -2.5653 C.2       1 <0>         0.6308
      9 O1         -0.0267    0.9366   -2.8016 O.2       1 <0>        -0.5091
     10 N3         -0.0009   -1.1452   -3.5796 N.am      1 <0>        -0.5829
     11 C6          0.0146   -2.6125   -3.4372 C.3       1 <0>         0.0692
     12 C7          0.6289   -3.1328   -4.7607 C.3       1 <0>         0.0901
     13 H1          0.3054   -4.1531   -4.9670 H         1 <0>         0.0783
     14 C8          0.0311   -2.1405   -5.7929 C.3       1 <0>        -0.0970
     15 C9         -0.0135   -0.8105   -5.0111 C.3       1 <0>         0.0737
     16 H2          0.8603   -0.2077   -5.2586 H         1 <0>         0.0723
     17 C10        -1.2731   -0.0557   -5.3499 C.2       1 <0>         0.4935
     18 O2         -2.0796    0.2085   -4.4746 O.co2     1 <0>        -0.6718
     19 O3         -1.4856    0.2908   -6.4994 O.co2     1 <0>        -0.7005
     20 O4          2.0550   -3.0463   -4.7324 O.3       1 <0>        -0.5521
     21 H3          1.0042    1.8801    0.0026 H         1 <0>         0.0771
     22 H4         -0.5455    1.8639   -0.8728 H         1 <0>         0.1010
     23 H5         -0.5286    1.8543    0.9071 H         1 <0>         0.0691
     24 H6          0.0659   -3.8448    2.0191 H         1 <0>         0.4180
     25 H7          0.0531   -2.5369    3.0736 H         1 <0>         0.4114
     26 H8          0.6353   -2.9049   -2.5902 H         1 <0>         0.0710
     27 H9         -0.9996   -2.9924   -3.3145 H         1 <0>         0.0768
     28 H10         0.6781   -2.0558   -6.6660 H         1 <0>         0.0871
     29 H11        -0.9738   -2.4461   -6.0844 H         1 <0>         0.0882
     30 H12         2.4674   -3.5761   -4.0365 H         1 <0>         0.3721
@<TRIPOS>BOND
     1    1    2 1
     2    1   21 1
     3    1   22 1
     4    1   23 1
     5    2    6 1
     6    2    3 2
     7    3    4 1
     8    3    8 1
     9    4    5 1
    10    5    6 2
    11    5    7 1
    12    7   24 1
    13    7   25 1
    14    8    9 2
    15    8   10 am
    16   10   15 1
    17   10   11 1
    18   11   12 1
    19   11   26 1
    20   11   27 1
    21   12   13 1
    22   12   14 1
    23   12   20 1
    24   14   15 1
    25   14   28 1
    26   14   29 1
    27   15   16 1
    28   15   17 1
    29   17   18 2
    30   17   19 1
    31   20   30 1
@<TRIPOS>MOLECULE
ZINC20272147
   26    28     0     0     0
SMALL
USER_CHARGES
acetyl-methyl-oxo-BLAHcarboxylic acid
@<TRIPOS>ATOM
      1 C1         -2.4819   -0.3758    0.0247 C.3       1 <0>        -0.1229
      2 C2         -1.0623   -0.8813    0.0075 C.2       1 <0>         0.0768
      3 C3         -0.7884   -2.2521   -0.0030 C.2       1 <0>        -0.2874
      4 C4         -1.7529   -3.3819   -0.0004 C.2       1 <0>         0.5321
      5 O1         -2.9505   -3.1655    0.0129 O.3       1 <0>        -0.5685
      6 N1         -1.2933   -4.6449   -0.0125 N.2       1 <0>        -0.5814
      7 C5          0.0513   -4.9207   -0.0272 C.2       1 <0>         0.3686
      8 C6          0.7698   -6.1099   -0.0417 C.2       1 <0>        -0.1301
      9 N2          2.0800   -5.8042   -0.0529 N.2       1 <0>        -0.1486
     10 N3          2.2337   -4.5271   -0.0464 N.2       1 <0>        -0.1886
     11 N4          0.9718   -3.9158   -0.0300 N.pl3     1 <0>        -0.3492
     12 C7          0.5684   -2.6066   -0.0183 C.2       1 <0>         0.1494
     13 S1          1.4081   -1.1002   -0.0252 S.3       1 <0>         0.1659
     14 C8          0.0021   -0.0041    0.0020 C.2       1 <0>        -0.3482
     15 C9         -0.0171    1.4084    0.0098 C.2       1 <0>         0.4420
     16 O2         -1.0770    2.0013    0.0180 O.2       1 <0>        -0.4775
     17 C10         1.2776    2.1796    0.0016 C.3       1 <0>        -0.1981
     18 C11         0.1997   -7.4618   -0.0438 C.2       1 <0>         0.5445
     19 O3         -1.0068   -7.6129   -0.0321 O.co2     1 <0>        -0.6173
     20 O4          1.0137   -8.5367   -0.0587 O.co2     1 <0>        -0.7715
     21 H1         -3.1752   -1.2298    0.0266 H         1 <0>         0.1077
     22 H2         -2.6623    0.2410   -0.8681 H         1 <0>         0.0713
     23 H3         -2.6443    0.2304    0.9281 H         1 <0>         0.0711
     24 H4          1.0619    3.2582    0.0095 H         1 <0>         0.0811
     25 H5          1.8494    1.9266   -0.9034 H         1 <0>         0.0895
     26 H6          1.8665    1.9169    0.8928 H         1 <0>         0.0895
@<TRIPOS>BOND
     1    1    2 1
     2    1   21 1
     3    1   22 1
     4    1   23 1
     5    2   14 2
     6    2    3 1
     7    3   12 2
     8    3    4 1
     9    4    5 1
    10    4    6 2
    11    6    7 1
    12    7   11 1
    13    7    8 2
    14    8    9 1
    15    8   18 1
    16    9   10 2
    17   10   11 1
    18   11   12 1
    19   12   13 1
    20   13   14 1
    21   14   15 1
    22   15   16 2
    23   15   17 1
    24   17   24 1
    25   17   25 1
    26   17   26 1
    27   18   19 2
    28   18   20 1
@<TRIPOS>MOLECULE
ZINC16148107
   31    32     0     0     0
SMALL
USER_CHARGES

@<TRIPOS>ATOM
      1 C1         -0.0184    1.5028    0.0103 C.3       1 <0>        -0.1016
      2 C2          0.0021   -0.0041    0.0020 C.ar      1 <0>        -0.0626
      3 C3          0.0057   -0.6877   -1.1999 C.ar      1 <0>        -0.2116
      4 C4          0.0244   -2.0704   -1.2128 C.ar      1 <0>        -0.0954
      5 C5          0.0396   -2.7737   -0.0223 C.ar      1 <0>        -0.0738
      6 C6          0.0360   -2.0882    1.1878 C.ar      1 <0>         0.2653
      7 C7          0.0229   -0.7000    1.1953 C.ar      1 <0>        -0.1660
      8 N1          0.0513   -2.7955    2.3941 N.2       1 <0>        -1.0891
      9 S1          0.0739   -4.4514    2.3828 S.o2      1 <0>         2.6278
     10 O1         -1.1685   -4.8707    1.8351 O.2       1 <0>        -1.0230
     11 O2          1.3219   -4.8367    1.8233 O.2       1 <0>        -1.0328
     12 C8          0.0891   -4.9836    4.0624 C.ar      1 <0>        -0.6428
     13 C9          1.2951   -5.1702    4.7164 C.ar      1 <0>        -0.0227
     14 C10         1.3178   -5.5877    6.0345 C.ar      1 <0>        -0.1610
     15 C11         0.1350   -5.8213    6.7086 C.ar      1 <0>         0.0325
     16 C12        -1.0865   -5.6343    6.0541 C.ar      1 <0>        -0.1582
     17 C13        -1.0999   -5.2075    4.7231 C.ar      1 <0>         0.0242
     18 C14        -2.3540   -5.8816    6.7657 C.2       1 <0>         0.5229
     19 O3         -3.4206   -5.7171    6.1903 O.co2     1 <0>        -0.6851
     20 O4         -2.3387   -6.2513    7.9314 O.co2     1 <0>        -0.6697
     21 Cl1         0.1649   -6.3460    8.3632 Cl        1 <0>        -0.0534
     22 F1          0.0574   -4.1246   -0.0347 F         1 <0>        -0.1436
     23 H1          1.0042    1.8801    0.0026 H         1 <0>         0.0592
     24 H2         -0.5455    1.8639   -0.8728 H         1 <0>         0.0550
     25 H3         -0.5286    1.8543    0.9071 H         1 <0>         0.0596
     26 H4         -0.0065   -0.1404   -2.1309 H         1 <0>         0.1063
     27 H5          0.0268   -2.6013   -2.1533 H         1 <0>         0.1110
     28 H6          0.0245   -0.1646    2.1332 H         1 <0>         0.1196
     29 H7          2.2230   -4.9891    4.1942 H         1 <0>         0.1352
     30 H8          2.2625   -5.7318    6.5378 H         1 <0>         0.1270
     31 H9         -2.0395   -5.0574    4.2123 H         1 <0>         0.1468
@<TRIPOS>BOND
     1    1    2 1
     2    1   23 1
     3    1   24 1
     4    1   25 1
     5    2    7 ar
     6    2    3 ar
     7    3    4 ar
     8    3   26 1
     9    4    5 ar
    10    4   27 1
    11    5    6 ar
    12    5   22 1
    13    6    7 ar
    14    6    8 1
    15    7   28 1
    16    8    9 1
    17    9   10 2
    18    9   11 2
    19    9   12 1
    20   12   17 ar
    21   12   13 ar
    22   13   14 ar
    23   13   29 1
    24   14   15 ar
    25   14   30 1
    26   15   16 ar
    27   15   21 1
    28   16   17 ar
    29   16   18 1
    30   17   31 1
    31   18   19 2
    32   18   20 1
@<TRIPOS>MOLECULE
ZINC37926493
   26    27     0     0     0
SMALL
USER_CHARGES

@<TRIPOS>ATOM
      1 C1         -0.0184    1.5028    0.0103 C.3       1 <0>        -0.0873
      2 C2          0.0021   -0.0041    0.0020 C.2       1 <0>         0.2377
      3 C3          0.0058   -0.7055   -1.1573 C.2       1 <0>        -0.8332
      4 S1          0.0316   -2.3783   -0.5339 S.3       1 <0>        -0.0280
      5 C4          0.0348   -2.0142    1.1093 C.2       1 <0>         0.4091
      6 O1          0.0520   -2.8688    2.1613 O.3       1 <0>        -0.6385
      7 N1          0.0227   -0.7000    1.1247 N.2       1 <0>        -0.6595
      8 S2         -0.0108   -0.1263   -2.8214 S.o2      1 <0>         2.6803
      9 O2         -1.3667   -0.1491   -3.2458 O.2       1 <0>        -1.0352
     10 O3          0.7758    1.0568   -2.8475 O.2       1 <0>        -1.0324
     11 N2          0.7911   -1.2482   -3.7383 N.2       1 <0>        -1.0689
     12 C5          0.9354   -1.0524   -5.1072 C.ar      1 <0>         0.3504
     13 C6          0.4135    0.0852   -5.7079 C.ar      1 <0>        -0.2685
     14 C7          0.5575    0.2794   -7.0673 C.ar      1 <0>        -0.0170
     15 C8          1.2217   -0.6552   -7.8435 C.ar      1 <0>        -0.2727
     16 C9          1.7482   -1.7937   -7.2655 C.ar      1 <0>         0.1836
     17 C10         1.6146   -2.0014   -5.8877 C.ar      1 <0>        -0.1609
     18 C11         2.1627   -3.1761   -5.2792 C.1       1 <0>         0.3093
     19 N3          2.5975   -4.1079   -4.7965 N.1       1 <0>        -0.4776
     20 F1          2.3950   -2.7027   -8.0275 F         1 <0>        -0.1488
     21 H1          1.0042    1.8801    0.0026 H         1 <0>         0.0781
     22 H2         -0.5455    1.8639   -0.8728 H         1 <0>         0.0634
     23 H3         -0.5286    1.8543    0.9071 H         1 <0>         0.0674
     24 H4         -0.1065    0.8196   -5.1107 H         1 <0>         0.1121
     25 H5          0.1488    1.1664   -7.5285 H         1 <0>         0.1171
     26 H6          1.3282   -0.4934   -8.9059 H         1 <0>         0.1199
@<TRIPOS>BOND
     1    1    2 1
     2    1   21 1
     3    1   22 1
     4    1   23 1
     5    2    7 1
     6    2    3 2
     7    3    4 1
     8    3    8 1
     9    4    5 1
    10    5    6 1
    11    5    7 2
    12    8    9 2
    13    8   10 2
    14    8   11 1
    15   11   12 1
    16   12   17 ar
    17   12   13 ar
    18   13   14 ar
    19   13   24 1
    20   14   15 ar
    21   14   25 1
    22   15   16 ar
    23   15   26 1
    24   16   17 ar
    25   16   20 1
    26   17   18 1
    27   18   19 3
@<TRIPOS>MOLECULE
ZINC00305514
   30    32     0     0     0
SMALL
USER_CHARGES

@<TRIPOS>ATOM
      1 C1          0.5013    2.0795   -0.5888 C.3       1 <0>         0.0950
      2 N1         -0.4114    2.5151   -1.6487 N.pl3     1 <0>        -0.5111
      3 C2         -1.7699    2.3750   -1.4926 C.2       1 <0>         0.2976
      4 C3         -2.6089    2.8046   -2.5311 C.2       1 <0>        -0.1649
      5 C4         -2.0402    3.3534   -3.6739 C.2       1 <0>         0.5195
      6 N2         -0.7121    3.4612   -3.7623 N.2       1 <0>        -0.6348
      7 C5          0.0787    3.0650   -2.7891 C.2       1 <0>         0.6248
      8 O1          1.4132    3.2037   -2.9301 O.3       1 <0>        -0.6919
      9 O2         -2.8269    3.7753   -4.6907 O.3       1 <0>        -0.6660
     10 N3         -3.9095    2.5473   -2.1108 N.pl3     1 <0>        -0.4297
     11 C6         -3.8231    1.9934   -0.8834 C.2       1 <0>         0.4373
     12 N4         -2.5478    1.8959   -0.5263 N.2       1 <0>        -0.5496
     13 S1         -5.1549    1.4925    0.0687 S.2       1 <0>        -0.8010
     14 C7         -5.1387    2.8250   -2.8579 C.3       1 <0>         0.1630
     15 C8         -5.8643    3.9813   -2.2194 C.ar      1 <0>        -0.0833
     16 C9         -7.0116    3.7553   -1.4823 C.ar      1 <0>        -0.0487
     17 C10        -7.6772    4.8157   -0.8966 C.ar      1 <0>        -0.1378
     18 C11        -7.1959    6.1030   -1.0475 C.ar      1 <0>        -0.1141
     19 C12        -6.0489    6.3302   -1.7842 C.ar      1 <0>        -0.1379
     20 C13        -5.3790    5.2683   -2.3661 C.ar      1 <0>        -0.0341
     21 Cl1        -3.9345    5.5522   -3.2861 Cl        1 <0>        -0.0093
     22 H1          0.7752    1.0370   -0.7510 H         1 <0>         0.0456
     23 H2          1.3988    2.6978   -0.6054 H         1 <0>         0.0756
     24 H3          0.0089    2.1795    0.3785 H         1 <0>         0.0660
     25 H4         -4.8885    3.0775   -3.8883 H         1 <0>         0.1154
     26 H5         -5.7788    1.9428   -2.8452 H         1 <0>         0.0840
     27 H6         -7.3883    2.7500   -1.3643 H         1 <0>         0.1356
     28 H7         -8.5737    4.6387   -0.3210 H         1 <0>         0.1176
     29 H8         -7.7165    6.9312   -0.5900 H         1 <0>         0.1168
     30 H9         -5.6732    7.3358   -1.9024 H         1 <0>         0.1204
@<TRIPOS>BOND
     1    1   22 1
     2    1   23 1
     3    1   24 1
     4    1    2 1
     5    2    3 1
     6    2    7 1
     7    3   12 2
     8    3    4 1
     9    4    5 2
    10    4   10 1
    11    5    6 1
    12    5    9 1
    13    6    7 2
    14    7    8 1
    15   10   11 1
    16   10   14 1
    17   11   12 1
    18   11   13 2
    19   14   15 1
    20   14   25 1
    21   14   26 1
    22   15   20 ar
    23   15   16 ar
    24   16   17 ar
    25   16   27 1
    26   17   18 ar
    27   17   28 1
    28   18   19 ar
    29   18   29 1
    30   19   20 ar
    31   19   30 1
    32   20   21 1
@<TRIPOS>MOLECULE
ZINC62348914
   34    35     0     0     0
SMALL
USER_CHARGES

@<TRIPOS>ATOM
      1 C1          0.0681    1.5015    0.0719 C.3       1 <0>        -0.0952
      2 C2          0.0442   -0.0048    0.0315 C.ar      1 <0>        -0.0710
      3 C3         -0.1372   -0.6587   -1.1732 C.ar      1 <0>        -0.1937
      4 C4         -0.1610   -2.0477   -1.2193 C.ar      1 <0>         0.2636
      5 C5         -0.0020   -2.7829   -0.0547 C.ar      1 <0>        -0.2303
      6 C6          0.1816   -2.1230    1.1617 C.ar      1 <0>        -0.0689
      7 C7          0.2090   -0.7261    1.1957 C.ar      1 <0>        -0.1658
      8 C8          0.4124   -0.0079    2.5049 C.3       1 <0>        -0.0763
      9 C9          0.3511   -2.8975    2.4062 C.2       1 <0>         0.5298
     10 O1          1.2153   -3.7598    2.4769 O.co2     1 <0>        -0.6983
     11 O2         -0.3727   -2.6770    3.3670 O.co2     1 <0>        -0.7007
     12 N1         -0.3455   -2.7031   -2.4394 N.2       1 <0>        -1.1026
     13 S1         -0.3738   -4.3579   -2.4944 S.o2      1 <0>         2.6217
     14 O3          0.9302   -4.7984   -2.1413 O.2       1 <0>        -1.0359
     15 O4         -1.5346   -4.7681   -1.7848 O.2       1 <0>        -1.0341
     16 C10        -0.6228   -4.8191   -4.1766 C.2       1 <0>        -0.7411
     17 C11        -1.8585   -5.0147   -4.8020 C.2       1 <0>         0.1313
     18 N2         -1.6379   -5.3472   -6.0480 N.2       1 <0>        -0.3167
     19 N3         -0.2527   -5.3737   -6.2553 N.pl3     1 <0>        -0.3842
     20 C12         0.3475   -5.0407   -5.0934 C.2       1 <0>         0.1572
     21 C13         0.4245   -5.6995   -7.5128 C.3       1 <0>         0.1017
     22 H1          1.0902    1.8526   -0.0697 H         1 <0>         0.0512
     23 H2         -0.5651    1.8964   -0.7226 H         1 <0>         0.0497
     24 H3         -0.3036    1.8450    1.0373 H         1 <0>         0.0546
     25 H4         -0.2612   -0.0881   -2.0817 H         1 <0>         0.1000
     26 H5         -0.0205   -3.8622   -0.0883 H         1 <0>         0.0940
     27 H6         -0.5565    0.2119    2.9531 H         1 <0>         0.0469
     28 H7          0.9901   -0.6395    3.1798 H         1 <0>         0.0555
     29 H8          0.9509    0.9232    2.3286 H         1 <0>         0.0352
     30 H9         -2.8275   -4.9096   -4.3367 H         1 <0>         0.1932
     31 H10         1.4117   -4.9671   -4.9247 H         1 <0>         0.1864
     32 H11         0.5717   -4.7884   -8.0929 H         1 <0>         0.0723
     33 H12         1.3919   -6.1533   -7.2975 H         1 <0>         0.0855
     34 H13        -0.1860   -6.3990   -8.0837 H         1 <0>         0.0849
@<TRIPOS>BOND
     1    1    2 1
     2    1   22 1
     3    1   23 1
     4    1   24 1
     5    2    7 ar
     6    2    3 ar
     7    3    4 ar
     8    3   25 1
     9    4    5 ar
    10    4   12 1
    11    5    6 ar
    12    5   26 1
    13    6    7 ar
    14    6    9 1
    15    7    8 1
    16    8   27 1
    17    8   28 1
    18    8   29 1
    19    9   10 2
    20    9   11 1
    21   12   13 1
    22   13   14 2
    23   13   15 2
    24   13   16 1
    25   16   20 2
    26   16   17 1
    27   17   18 2
    28   17   30 1
    29   18   19 1
    30   19   20 1
    31   19   21 1
    32   20   31 1
    33   21   32 1
    34   21   33 1
    35   21   34 1
@<TRIPOS>MOLECULE
ZINC12659851
   43    46     0     0     0
SMALL
USER_CHARGES
(1R,3S)-1-(2-hydroxy-3-methyl-5-nitro-phenyl)-2,3,4,9-tetrahydro-1H-pyrido[5,4-b]indole-3-carboxylic acid
@<TRIPOS>ATOM
      1 C1         -7.2221   -1.9803    1.1914 C.3       1 <0>        -0.0856
      2 C2         -6.9371   -0.5488    1.5665 C.ar      1 <0>        -0.1993
      3 C3         -7.3300   -0.0658    2.7999 C.ar      1 <0>        -0.0123
      4 C4         -7.0684    1.2471    3.1447 C.ar      1 <0>        -0.1604
      5 C5         -6.4085    2.0788    2.2586 C.ar      1 <0>        -0.0130
      6 C6         -6.0182    1.6022    1.0223 C.ar      1 <0>        -0.2669
      7 C7         -6.2796    0.2849    0.6739 C.ar      1 <0>         0.3206
      8 C8         -5.3036    2.5106    0.0552 C.3       1 <0>         0.1727
      9 H1         -5.6712    2.3333   -0.9555 H         1 <0>         0.1988
     10 C9         -3.8171    2.2440    0.1102 C.2       1 <0>         0.0923
     11 C10        -2.8962    3.2290    0.1429 C.2       1 <0>        -0.1848
     12 C11        -1.5836    2.5987    0.1938 C.ar      1 <0>        -0.0852
     13 C12        -0.2707    3.0740    0.2312 C.ar      1 <0>        -0.0680
     14 C13         0.7713    2.1921    0.2734 C.ar      1 <0>        -0.1486
     15 C14         0.5375    0.8236    0.2800 C.ar      1 <0>        -0.1026
     16 C15        -0.7485    0.3315    0.2445 C.ar      1 <0>        -0.1250
     17 C16        -1.8251    1.2106    0.1956 C.ar      1 <0>         0.1003
     18 N1         -3.1914    1.0323    0.1495 N.pl3     1 <0>        -0.5524
     19 H2         -3.6411    0.1729    0.1456 H         1 <0>         0.4276
     20 C17        -3.2378    4.6967    0.1085 C.3       1 <0>        -0.0399
     21 C18        -4.7018    4.8296   -0.3348 C.3       1 <0>        -0.0243
     22 H3         -5.0372    5.8549   -0.1785 H         1 <0>         0.1399
     23 C19        -4.8180    4.4801   -1.7961 C.2       1 <0>         0.4661
     24 O1         -5.7086    3.7570   -2.1754 O.co2     1 <0>        -0.6102
     25 N2         -7.4905    1.7619    4.4666 N.pl3     1 <0>         0.0643
     26 O2         -8.0677    1.0290    5.2496 O.2       1 <0>        -0.2076
     27 O3         -7.2605    2.9185    4.7714 O.3       1 <0>        -0.2202
     28 H4         -6.3878   -2.6099    1.5005 H         1 <0>         0.0561
     29 H5         -8.1323   -2.3124    1.6908 H         1 <0>         0.0524
     30 H6         -7.3524   -2.0540    0.1118 H         1 <0>         0.0729
     31 H7         -7.8417   -0.7146    3.4954 H         1 <0>         0.1321
     32 H8         -6.2016    3.1030    2.5319 H         1 <0>         0.1167
     33 H9         -0.0798    4.1370    0.2263 H         1 <0>         0.1209
     34 H10         1.7855    2.5623    0.3023 H         1 <0>         0.1204
     35 H11         1.3717    0.1386    0.3136 H         1 <0>         0.1232
     36 H12        -0.9202   -0.7347    0.2501 H         1 <0>         0.1195
     37 H13        -3.1126    5.1279    1.1017 H         1 <0>         0.0814
     38 H14        -2.5893    5.2098   -0.6016 H         1 <0>         0.1217
     39 O4         -5.8925   -0.1877   -0.5401 O.3       1 <0>        -0.6429
     40 N3         -5.5431    3.9176    0.4628 N.4       1 <0>        -0.4923
     41 H15        -5.3126    4.0264    1.4574 H         1 <0>         0.4126
     42 H16        -6.5318    4.1504    0.3131 H         1 <0>         0.4341
     43 O5         -3.9320    4.9721   -2.6764 O.co2     1 <0>        -0.7051
@<TRIPOS>BOND
     1    1    2 1
     2    1   28 1
     3    1   29 1
     4    1   30 1
     5    2    7 ar
     6    2    3 ar
     7    3    4 ar
     8    3   31 1
     9    4    5 ar
    10    4   25 1
    11    5    6 ar
    12    5   32 1
    13    6    7 ar
    14    6    8 1
    15    7   39 1
    16    8    9 1
    17    8   10 1
    18    8   40 1
    19   10   18 1
    20   10   11 2
    21   11   12 1
    22   11   20 1
    23   12   17 ar
    24   12   13 ar
    25   13   14 ar
    26   13   33 1
    27   14   15 ar
    28   14   34 1
    29   15   16 ar
    30   15   35 1
    31   16   17 ar
    32   16   36 1
    33   17   18 1
    34   18   19 1
    35   20   21 1
    36   20   37 1
    37   20   38 1
    38   21   22 1
    39   21   23 1
    40   21   40 1
    41   23   24 2
    42   23   43 1
    43   25   26 2
    44   25   27 1
    45   40   41 1
    46   40   42 1
@<TRIPOS>MOLECULE
ZINC37433763
   36    37     0     0     0
SMALL
USER_CHARGES

@<TRIPOS>ATOM
      1 C1         -0.0200    1.7815    0.0181 C.2       1 <0>        -0.2960
      2 C2          1.3084    2.0521    0.0056 C.2       1 <0>         0.1442
      3 N1          2.1309    1.0196   -0.0088 N.2       1 <0>        -0.5016
      4 C3          1.6738   -0.2138   -0.0107 C.2       1 <0>         0.2369
      5 S1          0.0041   -0.0037    0.0080 S.3       1 <0>         0.1592
      6 N2          2.3948   -1.4022   -0.0253 N.am      1 <0>        -0.6068
      7 C4          1.7464   -2.5838   -0.0249 C.2       1 <0>         0.5205
      8 O1          0.5340   -2.6102   -0.0119 O.2       1 <0>        -0.5010
      9 C5          2.5280   -3.8721   -0.0406 C.3       1 <0>        -0.1142
     10 H1          3.1656   -3.9217    0.8421 H         1 <0>         0.1110
     11 C6          1.5596   -5.0571   -0.0384 C.3       1 <0>        -0.1004
     12 C7          2.3525   -6.3660   -0.0213 C.3       1 <0>        -0.1352
     13 C8          3.2176   -6.4509   -1.2827 C.3       1 <0>         0.1085
     14 N3          4.0492   -5.2427   -1.3680 N.am      1 <0>        -0.6267
     15 C9          3.3957   -3.9284   -1.3019 C.3       1 <0>         0.1356
     16 C10         5.3868   -5.3379   -1.5038 C.2       1 <0>         0.7089
     17 O2          6.0544   -4.3346   -1.6652 O.2       1 <0>        -0.5851
     18 N4          5.9842   -6.5452   -1.4608 N.am      1 <0>        -0.8677
     19 C11         1.8232    3.4685    0.0075 C.3       1 <0>        -0.1250
     20 C12         2.7728    3.6563    1.1625 C.2       1 <0>         0.5000
     21 O3          3.0096    2.7262    1.9144 O.co2     1 <0>        -0.6792
     22 O4          3.3042    4.7383    1.3450 O.co2     1 <0>        -0.7074
     23 H2         -0.8608    2.4590    0.0344 H         1 <0>         0.1879
     24 H3          3.3645   -1.3811   -0.0357 H         1 <0>         0.4238
     25 H4          0.9247   -5.0056    0.8460 H         1 <0>         0.0804
     26 H5          0.9388   -5.0204   -0.9336 H         1 <0>         0.0774
     27 H6          2.9921   -6.3924    0.8609 H         1 <0>         0.0709
     28 H7          1.6622   -7.2092    0.0039 H         1 <0>         0.0836
     29 H8          3.8573   -7.3318   -1.2285 H         1 <0>         0.0796
     30 H9          2.5764   -6.5160   -2.1618 H         1 <0>         0.0744
     31 H10         2.7695   -3.7875   -2.1828 H         1 <0>         0.0772
     32 H11         4.1526   -3.1451   -1.2600 H         1 <0>         0.1033
     33 H12         5.4466   -7.3508   -1.4059 H         1 <0>         0.3953
     34 H13         6.9519   -6.6086   -1.4847 H         1 <0>         0.4148
     35 H14         2.3457    3.6664   -0.9284 H         1 <0>         0.0763
     36 H15         0.9861    4.1591    0.1094 H         1 <0>         0.0765
@<TRIPOS>BOND
     1    1    5 1
     2    1    2 2
     3    1   23 1
     4    2    3 1
     5    2   19 1
     6    3    4 2
     7    4    5 1
     8    4    6 1
     9    6    7 am
    10    6   24 1
    11    7    8 2
    12    7    9 1
    13    9   10 1
    14    9   15 1
    15    9   11 1
    16   11   12 1
    17   11   25 1
    18   11   26 1
    19   12   13 1
    20   12   27 1
    21   12   28 1
    22   13   14 1
    23   13   29 1
    24   13   30 1
    25   14   15 1
    26   14   16 am
    27   15   31 1
    28   15   32 1
    29   16   17 2
    30   16   18 am
    31   18   33 1
    32   18   34 1
    33   19   20 1
    34   19   35 1
    35   19   36 1
    36   20   21 2
    37   20   22 1
@<TRIPOS>MOLECULE
ZINC50254345
   31    32     0     0     0
SMALL
USER_CHARGES

@<TRIPOS>ATOM
      1 C1         -0.0178    1.4608    0.0101 C.3       1 <0>         0.0966
      2 N1          0.0021   -0.0041    0.0020 N.pl3     1 <0>        -0.3752
      3 C2          0.0078   -0.7920   -1.0936 C.2       1 <0>         0.1660
      4 C3          0.0272   -2.0789   -0.6760 C.2       1 <0>        -0.7578
      5 C4          0.0335   -2.0775    0.7227 C.2       1 <0>         0.1324
      6 N2          0.0246   -0.8342    1.1302 N.2       1 <0>        -0.3057
      7 S1          0.0410   -3.5046   -1.7112 S.o2      1 <0>         2.6441
      8 O1         -0.4917   -4.5722   -0.9393 O.2       1 <0>        -1.0211
      9 O2         -0.5215   -3.1090   -2.9547 O.2       1 <0>        -1.0278
     10 N3          1.6266   -3.8796   -2.0070 N.2       1 <0>        -1.0763
     11 C5          1.9468   -4.9775   -2.8088 C.ar      1 <0>         0.3380
     12 C6          0.9359   -5.7526   -3.3637 C.ar      1 <0>        -0.2771
     13 C7          1.2551   -6.8373   -4.1565 C.ar      1 <0>         0.0420
     14 C8          2.5795   -7.1533   -4.3984 C.ar      1 <0>        -0.7739
     15 C9          3.5892   -6.3838   -3.8476 C.ar      1 <0>         0.0952
     16 C10         3.2760   -5.2933   -3.0578 C.ar      1 <0>        -0.1826
     17 Cl1         5.2504   -6.7846   -4.1535 Cl        1 <0>        -0.0749
     18 S2          2.9822   -8.5389   -5.4097 S.o2      1 <0>         2.7063
     19 O3          3.9548   -9.2919   -4.6982 O.2       1 <0>        -0.9675
     20 O4          1.7494   -9.0998   -5.8397 O.2       1 <0>        -0.9821
     21 N4          3.7343   -7.9543   -6.7643 N.pl3     1 <0>        -1.2503
     22 H1          1.0048    1.8381    0.0023 H         1 <0>         0.0776
     23 H2         -0.5450    1.8219   -0.8730 H         1 <0>         0.0893
     24 H3         -0.5280    1.8123    0.9069 H         1 <0>         0.0901
     25 H4         -0.0017   -0.4556   -2.1198 H         1 <0>         0.1884
     26 H5          0.0482   -2.9516    1.3568 H         1 <0>         0.1952
     27 H6         -0.0987   -5.5072   -3.1749 H         1 <0>         0.1135
     28 H7          0.4695   -7.4398   -4.5879 H         1 <0>         0.1353
     29 H8          4.0640   -4.6901   -2.6316 H         1 <0>         0.1330
     30 H9          4.3983   -8.4939   -7.2214 H         1 <0>         0.4139
     31 H10         3.5109   -7.0723   -7.1006 H         1 <0>         0.4155
@<TRIPOS>BOND
     1    1    2 1
     2    1   22 1
     3    1   23 1
     4    1   24 1
     5    2    6 1
     6    2    3 1
     7    3    4 2
     8    3   25 1
     9    4    5 1
    10    4    7 1
    11    5    6 2
    12    5   26 1
    13    7    8 2
    14    7    9 2
    15    7   10 1
    16   10   11 1
    17   11   16 ar
    18   11   12 ar
    19   12   13 ar
    20   12   27 1
    21   13   14 ar
    22   13   28 1
    23   14   15 ar
    24   14   18 1
    25   15   16 ar
    26   15   17 1
    27   16   29 1
    28   18   19 2
    29   18   20 2
    30   18   21 1
    31   21   30 1
    32   21   31 1
@<TRIPOS>MOLECULE
ZINC61381960
   42    44     0     0     0
SMALL
USER_CHARGES

@<TRIPOS>ATOM
      1 C1          0.0880    1.3760    0.4910 C.ar      1 <0>        -0.1186
      2 C2          1.1677    2.0888    0.0099 C.ar      1 <0>        -0.1008
      3 C3          2.2834    1.4140   -0.4888 C.ar      1 <0>        -0.1296
      4 C4          2.3024    0.0194   -0.4987 C.ar      1 <0>        -0.0457
      5 C5          1.2129   -0.6875   -0.0133 C.ar      1 <0>         0.1796
      6 C6          0.1065   -0.0058    0.4813 C.ar      1 <0>        -0.0826
      7 N1          1.2267   -2.0862   -0.0214 N.am      1 <0>        -0.3646
      8 C7          2.2950   -2.7504    0.4634 C.2       1 <0>         0.4884
      9 O1          3.2506   -2.1354    0.9100 O.2       1 <0>        -0.5760
     10 C8          2.3008   -4.1593    0.4515 C.2       1 <0>        -0.2016
     11 C9          1.2254   -4.8252   -0.0503 C.2       1 <0>        -0.0816
     12 C10         0.1265   -4.1014   -0.5485 C.2       1 <0>         0.3616
     13 O2         -0.9471   -4.7656   -1.0490 O.3       1 <0>        -0.7111
     14 N2          0.1289   -2.7916   -0.5276 N.2       1 <0>        -0.3839
     15 C11         3.4410    2.1753   -1.0052 C.2       1 <0>         0.5733
     16 O3          4.4115    1.5857   -1.4389 O.2       1 <0>        -0.5323
     17 N3          3.4202    3.5228   -0.9949 N.am      1 <0>        -0.7101
     18 C12         4.5672    4.2771   -1.5066 C.3       1 <0>         0.1316
     19 C13         4.1119    5.6712   -1.9445 C.3       1 <0>        -0.1217
     20 C14         5.0545    6.2412   -2.9889 C.3       1 <0>        -0.1205
     21 C15         6.4462    6.5383   -2.4613 C.3       1 <0>        -0.1430
     22 C16         7.1747    5.2462   -2.0866 C.3       1 <0>         0.1028
     23 N4          6.8214    4.8907   -0.7026 N.am      1 <0>        -0.7245
     24 C17         5.6032    4.4316   -0.4131 C.2       1 <0>         0.5055
     25 O4          5.3242    4.1368    0.7298 O.2       1 <0>        -0.5327
     26 H1         -0.7723    1.8999    0.8805 H         1 <0>         0.1312
     27 H2          1.1492    3.1686    0.0189 H         1 <0>         0.1223
     28 H3          3.1626   -0.5080   -0.8836 H         1 <0>         0.1382
     29 H4         -0.7411   -0.5581    0.8594 H         1 <0>         0.1351
     30 H5          3.1497   -4.7049    0.8362 H         1 <0>         0.1427
     31 H6          1.2156   -5.9051   -0.0663 H         1 <0>         0.1279
     32 H7          2.6457    3.9933   -0.6488 H         1 <0>         0.4046
     33 H8          5.0046    3.7486   -2.3535 H         1 <0>         0.1137
     34 H9          3.1082    5.6055   -2.3647 H         1 <0>         0.0874
     35 H10         4.0947    6.3320   -1.0778 H         1 <0>         0.0733
     36 H11         5.1381    5.5276   -3.8086 H         1 <0>         0.0695
     37 H12         4.6254    7.1646   -3.3779 H         1 <0>         0.0732
     38 H13         7.0164    7.0615   -3.2289 H         1 <0>         0.0793
     39 H14         6.3670    7.1738   -1.5792 H         1 <0>         0.0715
     40 H15         6.8683    4.4453   -2.7595 H         1 <0>         0.0789
     41 H16         8.2514    5.3984   -2.1617 H         1 <0>         0.0889
     42 H17         7.4790    4.9910    0.0034 H         1 <0>         0.4006
@<TRIPOS>BOND
     1    1    6 ar
     2    1    2 ar
     3    1   26 1
     4    2    3 ar
     5    2   27 1
     6    3    4 ar
     7    3   15 1
     8    4    5 ar
     9    4   28 1
    10    5    6 ar
    11    5    7 1
    12    6   29 1
    13    7   14 1
    14    7    8 am
    15    8   10 1
    16    8    9 2
    17   10   11 2
    18   10   30 1
    19   11   12 1
    20   11   31 1
    21   12   14 2
    22   12   13 1
    23   15   16 2
    24   15   17 am
    25   17   18 1
    26   17   32 1
    27   18   24 1
    28   18   19 1
    29   18   33 1
    30   19   20 1
    31   19   34 1
    32   19   35 1
    33   20   21 1
    34   20   36 1
    35   20   37 1
    36   21   22 1
    37   21   38 1
    38   21   39 1
    39   22   23 1
    40   22   40 1
    41   22   41 1
    42   23   24 am
    43   23   42 1
    44   24   25 2
@<TRIPOS>MOLECULE
ZINC64447087
   35    37     0     0     0
SMALL
USER_CHARGES

@<TRIPOS>ATOM
      1 C1          0.0104    1.5470    0.0098 C.3       1 <0>        -0.1551
      2 C2          0.0014    0.0171   -0.0060 C.3       1 <0>         0.0886
      3 N1          0.6866   -0.4629   -1.2087 N.pl3     1 <0>        -0.4901
      4 C3         -0.0197   -0.6637   -2.3422 C.2       1 <0>         0.4997
      5 O1         -1.3430   -0.4289   -2.3806 O.3       1 <0>        -0.6088
      6 C4          0.6665   -1.1259   -3.4854 C.ar      1 <0>        -0.2124
      7 C5          0.0013   -1.3570   -4.6979 C.ar      1 <0>        -0.0230
      8 C6          0.6973   -1.8026   -5.7797 C.ar      1 <0>        -0.1365
      9 C7          2.0796   -2.0361   -5.6986 C.ar      1 <0>        -0.1028
     10 C8          2.7638   -1.8169   -4.5134 C.ar      1 <0>        -0.0771
     11 C9          2.0639   -1.3570   -3.3886 C.ar      1 <0>         0.2032
     12 N2          2.6844   -1.1306   -2.2221 N.2       1 <0>        -0.5472
     13 C10         2.0097   -0.6919   -1.1705 C.2       1 <0>         0.5015
     14 S1          2.8533   -0.4124    0.2928 S.2       1 <0>        -0.7079
     15 C11         2.8123   -2.5209   -6.8893 C.2       1 <0>         0.6097
     16 O2          2.2032   -2.8254   -7.8949 O.2       1 <0>        -0.4901
     17 N3          4.1557   -2.6245   -6.8579 N.am      1 <0>        -0.3793
     18 C12         4.9567   -2.9502   -7.9119 C.2       1 <0>         0.4522
     19 C13         6.2662   -2.9433   -7.4427 C.2       1 <0>        -0.2633
     20 C14         6.2142   -2.6013   -6.0701 C.2       1 <0>         0.1684
     21 N4          4.9687   -2.4104   -5.7394 N.2       1 <0>        -0.2761
     22 C15         7.4448   -3.2284   -8.2045 C.1       1 <0>         0.2990
     23 N5          8.3797   -3.4546   -8.8089 N.1       1 <0>        -0.4421
     24 N6          4.5470   -3.2332   -9.1974 N.pl3     1 <0>        -0.8122
     25 H1          1.0401    1.9043    0.0113 H         1 <0>         0.0680
     26 H2         -0.5032    1.9225   -0.8752 H         1 <0>         0.0506
     27 H3         -0.4994    1.9040    0.9047 H         1 <0>         0.0683
     28 H4          0.5150   -0.3585    0.8790 H         1 <0>         0.1167
     29 H5         -1.0284   -0.3402   -0.0075 H         1 <0>         0.0859
     30 H6         -1.0618   -1.1820   -4.7734 H         1 <0>         0.1375
     31 H7          0.1801   -1.9790   -6.7113 H         1 <0>         0.1323
     32 H8          3.8268   -1.9988   -4.4565 H         1 <0>         0.1887
     33 H9          7.0638   -2.5096   -5.4097 H         1 <0>         0.2092
     34 H10         3.6036   -3.2108   -9.4218 H         1 <0>         0.4233
     35 H11         5.2022   -3.4548   -9.8776 H         1 <0>         0.4210
@<TRIPOS>BOND
     1    1    2 1
     2    1   25 1
     3    1   26 1
     4    1   27 1
     5    2    3 1
     6    2   28 1
     7    2   29 1
     8    3   13 1
     9    3    4 1
    10    4    5 1
    11    4    6 2
    12    6   11 ar
    13    6    7 ar
    14    7    8 ar
    15    7   30 1
    16    8    9 ar
    17    8   31 1
    18    9   10 ar
    19    9   15 1
    20   10   11 ar
    21   10   32 1
    22   11   12 2
    23   12   13 1
    24   13   14 2
    25   15   16 2
    26   15   17 am
    27   17   21 1
    28   17   18 1
    29   18   19 2
    30   18   24 1
    31   19   20 1
    32   19   22 1
    33   20   21 2
    34   20   33 1
    35   22   23 3
    36   24   34 1
    37   24   35 1
@<TRIPOS>MOLECULE
ZINC21506896
   27    28     0     0     0
SMALL
USER_CHARGES
2-chloro-5-[(3-methylisoxazol-5-yl)sulfamoyl]benzoic acid
@<TRIPOS>ATOM
      1 C1          2.5296    5.9436   -4.8435 C.3       1 <0>        -0.0608
      2 C2          2.6784    4.8466   -3.8210 C.2       1 <0>         0.0192
      3 C3          3.8823    4.3678   -3.2686 C.2       1 <0>        -0.3367
      4 C4          3.4807    3.3872   -2.4052 C.2       1 <0>         0.2957
      5 O1          2.1420    3.3366   -2.4918 O.3       1 <0>         0.0132
      6 N1          1.7179    4.1544   -3.2749 N.2       1 <0>        -0.4134
      7 N2          4.2911    2.6012   -1.6072 N.2       1 <0>        -1.0084
      8 S1          3.8880    2.3381   -0.0227 S.o2      1 <0>         2.6151
      9 O2          3.5926    3.6100    0.5379 O.2       1 <0>        -1.0313
     10 O3          4.8878    1.4827    0.5140 O.2       1 <0>        -0.9849
     11 C5          2.3831    1.4217   -0.0132 C.ar      1 <0>        -0.6825
     12 C6          1.1696    2.0876    0.0021 C.ar      1 <0>        -0.0069
     13 C7         -0.0167    1.3772    0.0096 C.ar      1 <0>        -0.1572
     14 C8          0.0021   -0.0041    0.0020 C.ar      1 <0>         0.0324
     15 C9          1.2239   -0.6822   -0.0133 C.ar      1 <0>        -0.1412
     16 C10         2.4175    0.0433   -0.0209 C.ar      1 <0>         0.0314
     17 C11         1.2530   -2.1583   -0.0211 C.2       1 <0>         0.4923
     18 O4          0.2132   -2.7864   -0.0141 O.co2     1 <0>        -0.6159
     19 O5          2.4327   -2.8088   -0.0359 O.co2     1 <0>        -0.7543
     20 Cl1        -1.4879   -0.8949    0.0109 Cl        1 <0>        -0.0573
     21 H1          3.5229    6.3343   -5.1093 H         1 <0>         0.0690
     22 H2          1.9166    6.7550   -4.4241 H         1 <0>         0.0636
     23 H3          2.0406    5.5422   -5.7434 H         1 <0>         0.0632
     24 H4          4.8888    4.6983   -3.4786 H         1 <0>         0.1474
     25 H5          1.1493    3.1674    0.0078 H         1 <0>         0.1325
     26 H6         -0.9598    1.9033    0.0169 H         1 <0>         0.1265
     27 H7          3.3653   -0.4743   -0.0324 H         1 <0>         0.1494
@<TRIPOS>BOND
     1    1    2 1
     2    1   21 1
     3    1   22 1
     4    1   23 1
     5    2    6 2
     6    2    3 1
     7    3    4 2
     8    3   24 1
     9    4    5 1
    10    4    7 1
    11    5    6 1
    12    7    8 1
    13    8    9 2
    14    8   10 2
    15    8   11 1
    16   11   16 ar
    17   11   12 ar
    18   12   13 ar
    19   12   25 1
    20   13   14 ar
    21   13   26 1
    22   14   15 ar
    23   14   20 1
    24   15   16 ar
    25   15   17 1
    26   16   27 1
    27   17   18 2
    28   17   19 1
@<TRIPOS>MOLECULE
ZINC20003369
   24    25     0     0     0
SMALL
USER_CHARGES

@<TRIPOS>ATOM
      1 C1         -0.0167    1.3799    0.0096 C.ar      1 <0>        -0.0206
      2 C2          1.1674    2.0949    0.0022 C.ar      1 <0>        -0.1599
      3 C3          2.3782    1.4312   -0.0134 C.ar      1 <0>         0.0354
      4 C4          2.4042    0.0327   -0.0211 C.ar      1 <0>        -0.1571
      5 C5          1.2031   -0.6814   -0.0130 C.ar      1 <0>         0.0259
      6 C6          0.0021   -0.0041    0.0020 C.ar      1 <0>        -0.6441
      7 S1         -1.5133   -0.9031    0.0122 S.o2      1 <0>         2.6463
      8 O1         -1.2217   -2.1843    0.5533 O.2       1 <0>        -1.0073
      9 O2         -2.4924   -0.0423    0.5774 O.2       1 <0>        -1.0172
     10 N1         -1.9500   -1.1445   -1.5669 N.2       1 <0>        -1.0273
     11 C7         -3.1155   -1.8325   -1.8662 C.2       1 <0>         0.4092
     12 N2         -3.9927   -2.3554   -1.0361 N.2       1 <0>        -0.6703
     13 C8         -5.0637   -2.9864   -1.4843 C.2       1 <0>         0.1053
     14 C9         -5.2133   -3.0679   -2.8281 C.2       1 <0>        -0.3595
     15 S2         -3.7563   -2.1956   -3.3794 S.3       1 <0>        -0.0002
     16 C10         3.6925   -0.6844   -0.0382 C.2       1 <0>         0.5226
     17 O3          3.7116   -1.9073   -0.0449 O.co2     1 <0>        -0.6842
     18 O4          4.7419   -0.0563   -0.0456 O.co2     1 <0>        -0.6687
     19 Cl1         3.8635    2.3298   -0.0239 Cl        1 <0>        -0.0508
     20 H1         -0.9607    1.9042    0.0260 H         1 <0>         0.1369
     21 H2          1.1448    3.1747    0.0081 H         1 <0>         0.1286
     22 H3          1.2154   -1.7613   -0.0192 H         1 <0>         0.1484
     23 H4         -5.7876   -3.4182   -0.8091 H         1 <0>         0.1420
     24 H5         -5.9995   -3.5300   -3.4067 H         1 <0>         0.1666
@<TRIPOS>BOND
     1    1    6 ar
     2    1    2 ar
     3    1   20 1
     4    2    3 ar
     5    2   21 1
     6    3    4 ar
     7    3   19 1
     8    4    5 ar
     9    4   16 1
    10    5    6 ar
    11    5   22 1
    12    6    7 1
    13    7    8 2
    14    7    9 2
    15    7   10 1
    16   10   11 1
    17   11   15 1
    18   11   12 2
    19   12   13 1
    20   13   14 2
    21   13   23 1
    22   14   15 1
    23   14   24 1
    24   16   17 2
    25   16   18 1
@<TRIPOS>MOLECULE
ZINC38058941
   28    29     0     0     0
SMALL
USER_CHARGES

@<TRIPOS>ATOM
      1 C1         -0.0178    1.4608    0.0101 C.3       1 <0>         0.0677
      2 N1          0.0021   -0.0041    0.0020 N.am      1 <0>        -0.4736
      3 C2         -1.1715   -0.6924    0.0039 C.2       1 <0>        -0.0201
      4 C3         -1.1760   -2.0511   -0.0034 C.2       1 <0>         0.1815
      5 C4          0.0414   -2.7546   -0.0131 C.2       1 <0>        -0.0848
      6 C5          1.2137   -2.0578   -0.0150 C.2       1 <0>        -0.2297
      7 C6          1.1814   -0.6534   -0.0127 C.2       1 <0>         0.4890
      8 O1          2.2254   -0.0200   -0.0197 O.2       1 <0>        -0.6133
      9 N2         -2.3924   -2.7504   -0.0009 N.2       1 <0>        -1.0896
     10 S1         -2.3955   -4.4064   -0.0099 S.o2      1 <0>         2.6490
     11 O2         -1.8519   -4.8067   -1.2603 O.2       1 <0>        -1.0357
     12 O3         -1.8390   -4.8203    1.2303 O.2       1 <0>        -1.0329
     13 C7         -4.0797   -4.9242   -0.0039 C.2       1 <0>        -0.7838
     14 C8         -4.8806   -5.1687   -1.0724 C.2       1 <0>        -0.0548
     15 C9         -6.1758   -5.5682   -0.8582 C.2       1 <0>        -0.1675
     16 C10        -6.5575   -5.6884    0.4726 C.2       1 <0>        -0.1767
     17 S2         -5.0589   -5.2352    1.3252 S.3       1 <0>         0.2877
     18 C11        -7.8103   -6.0754    1.0115 C.2       1 <0>         0.5525
     19 O4         -8.7376   -6.3595    0.2632 O.co2     1 <0>        -0.6768
     20 O5         -7.9655   -6.1257    2.2256 O.co2     1 <0>        -0.6814
     21 H1          1.0048    1.8381    0.0023 H         1 <0>         0.0903
     22 H2         -0.5450    1.8219   -0.8730 H         1 <0>         0.0661
     23 H3         -0.5280    1.8123    0.9069 H         1 <0>         0.0667
     24 H4         -2.1077   -0.1540    0.0117 H         1 <0>         0.1519
     25 H5          0.0481   -3.8345   -0.0187 H         1 <0>         0.1143
     26 H6          2.1585   -2.5810   -0.0220 H         1 <0>         0.1354
     27 H7         -4.5035   -5.0502   -2.0774 H         1 <0>         0.1287
     28 H8         -6.8552   -5.7754   -1.6718 H         1 <0>         0.1399
@<TRIPOS>BOND
     1    1    2 1
     2    1   21 1
     3    1   22 1
     4    1   23 1
     5    2    7 am
     6    2    3 1
     7    3    4 2
     8    3   24 1
     9    4    5 1
    10    4    9 1
    11    5    6 2
    12    5   25 1
    13    6    7 1
    14    6   26 1
    15    7    8 2
    16    9   10 1
    17   10   11 2
    18   10   12 2
    19   10   13 1
    20   13   17 1
    21   13   14 2
    22   14   15 1
    23   14   27 1
    24   15   16 2
    25   15   28 1
    26   16   17 1
    27   16   18 1
    28   18   19 2
    29   18   20 1
@<TRIPOS>MOLECULE
ZINC51393976
   30    31     0     0     0
SMALL
USER_CHARGES

@<TRIPOS>ATOM
      1 C1         -0.0184    1.5028    0.0103 C.3       1 <0>        -0.0881
      2 C2          0.0021   -0.0041    0.0020 C.ar      1 <0>         0.1710
      3 C3          0.0059   -0.6964   -1.1947 C.ar      1 <0>        -0.3475
      4 C4          0.0250   -2.0898   -1.1575 C.ar      1 <0>         0.4432
      5 O1          0.0298   -2.8078   -2.3069 O.3       1 <0>        -0.7135
      6 N1          0.0387   -2.7036    0.0194 N.ar      1 <0>        -0.6146
      7 C5          0.0345   -2.0050    1.1455 C.ar      1 <0>         0.3307
      8 N2          0.0221   -0.6794    1.1408 N.ar      1 <0>        -0.5870
      9 S1          0.0533   -2.8588    2.6867 S.3       1 <0>        -0.0233
     10 C6          0.0748   -4.6109    2.2174 C.3       1 <0>        -0.0910
     11 C7          0.0924   -5.4765    3.4789 C.3       1 <0>         0.0951
     12 H1         -0.7868   -5.2718    4.0898 H         1 <0>         0.0714
     13 C8          0.1463   -6.9780    3.1001 C.3       1 <0>        -0.1451
     14 C9          0.7910   -7.5814    4.3777 C.3       1 <0>        -0.1243
     15 C10         1.7523   -6.4578    4.8215 C.3       1 <0>         0.0103
     16 H2          2.7625   -6.6776    4.4761 H         1 <0>         0.0673
     17 O2          1.2909   -5.2346    4.2330 O.3       1 <0>        -0.3439
     18 C11         1.7404   -6.3386    6.3237 C.2       1 <0>         0.4888
     19 O3          2.1539   -7.2566    7.0114 O.co2     1 <0>        -0.7082
     20 O4          1.3174   -5.3242    6.8514 O.co2     1 <0>        -0.6763
     21 H3          1.0042    1.8801    0.0026 H         1 <0>         0.0660
     22 H4         -0.5455    1.8639   -0.8728 H         1 <0>         0.0624
     23 H5         -0.5286    1.8543    0.9071 H         1 <0>         0.0672
     24 H6         -0.0060   -0.1694   -2.1374 H         1 <0>         0.1085
     25 H7         -0.8149   -4.8410    1.6313 H         1 <0>         0.0949
     26 H8          0.9649   -4.8169    1.6230 H         1 <0>         0.0912
     27 H9         -0.8545   -7.3785    2.9385 H         1 <0>         0.0762
     28 H10         0.7782   -7.1405    2.2269 H         1 <0>         0.0762
     29 H11         0.0362   -7.7702    5.1410 H         1 <0>         0.0705
     30 H12         1.3415   -8.4920    4.1414 H         1 <0>         0.0718
@<TRIPOS>BOND
     1    1    2 1
     2    1   21 1
     3    1   22 1
     4    1   23 1
     5    2    8 ar
     6    2    3 ar
     7    3    4 ar
     8    3   24 1
     9    4    5 1
    10    4    6 ar
    11    6    7 ar
    12    7    8 ar
    13    7    9 1
    14    9   10 1
    15   10   11 1
    16   10   25 1
    17   10   26 1
    18   11   12 1
    19   11   17 1
    20   11   13 1
    21   13   14 1
    22   13   27 1
    23   13   28 1
    24   14   15 1
    25   14   29 1
    26   14   30 1
    27   15   16 1
    28   15   17 1
    29   15   18 1
    30   18   19 2
    31   18   20 1
@<TRIPOS>MOLECULE
ZINC62947017
   27    28     0     0     0
SMALL
USER_CHARGES

@<TRIPOS>ATOM
      1 C1         -0.0167    1.3780    0.0096 C.ar      1 <0>         0.0094
      2 C2          1.1704    2.0864    0.0021 C.ar      1 <0>        -0.1671
      3 C3          2.3786    1.4116   -0.0131 C.ar      1 <0>         0.1379
      4 C4          2.3968    0.0258   -0.0207 C.ar      1 <0>        -0.0969
      5 C5          1.2079   -0.6803   -0.0132 C.ar      1 <0>         0.0145
      6 C6          0.0021   -0.0041    0.0020 C.ar      1 <0>        -0.6061
      7 S1         -1.5122   -0.9049    0.0117 S.o2      1 <0>         2.5868
      8 O1         -1.2193   -2.1858    0.5529 O.2       1 <0>        -1.0271
      9 O2         -2.4926   -0.0453    0.5765 O.2       1 <0>        -1.0275
     10 N1         -1.9481   -1.1468   -1.5675 N.2       1 <0>        -1.0793
     11 C7         -3.1222   -1.8418   -1.8697 C.ar      1 <0>         0.2098
     12 C8         -3.4935   -2.0548   -3.1925 C.ar      1 <0>        -0.1022
     13 C9         -4.6790   -2.7568   -3.4424 C.ar      1 <0>        -0.1507
     14 C10        -5.4359   -3.2120   -2.3598 C.ar      1 <0>         0.0290
     15 N2         -5.0444   -2.9861   -1.1235 N.ar      1 <0>        -0.4683
     16 C11        -3.9306   -2.3339   -0.8516 C.ar      1 <0>        -0.0577
     17 C12        -5.1219   -3.0114   -4.8266 C.2       1 <0>         0.5308
     18 O3         -4.4521   -2.6082   -5.7669 O.co2     1 <0>        -0.6948
     19 O4         -6.1590   -3.6256   -5.0336 O.co2     1 <0>        -0.7000
     20 Cl1         3.9111   -0.8229   -0.0404 Cl        1 <0>        -0.0575
     21 F1          3.5392    2.1031   -0.0209 F         1 <0>        -0.1294
     22 H1         -0.9593    1.9048    0.0260 H         1 <0>         0.1554
     23 H2          1.1549    3.1663    0.0077 H         1 <0>         0.1483
     24 H3          1.2213   -1.7602   -0.0195 H         1 <0>         0.1580
     25 H4         -2.8842   -1.6883   -4.0054 H         1 <0>         0.1263
     26 H5         -6.3522   -3.7547   -2.5392 H         1 <0>         0.1423
     27 H6         -3.6449   -2.1755    0.1778 H         1 <0>         0.1163
@<TRIPOS>BOND
     1    1    6 ar
     2    1    2 ar
     3    1   22 1
     4    2    3 ar
     5    2   23 1
     6    3    4 ar
     7    3   21 1
     8    4    5 ar
     9    4   20 1
    10    5    6 ar
    11    5   24 1
    12    6    7 1
    13    7    8 2
    14    7    9 2
    15    7   10 1
    16   10   11 1
    17   11   16 ar
    18   11   12 ar
    19   12   13 ar
    20   12   25 1
    21   13   14 ar
    22   13   17 1
    23   14   15 ar
    24   14   26 1
    25   15   16 ar
    26   16   27 1
    27   17   18 2
    28   17   19 1
@<TRIPOS>MOLECULE
ZINC00332716
   18    18     0     0     0
SMALL
USER_CHARGES
4-hydroxy-5-nitro-benzene-1,3-dicarbaldehyde
@<TRIPOS>ATOM
      1 C1          0.0403   -2.7976   -0.0129 C.ar      1 <0>         0.0579
      2 C2          1.2339   -2.0749   -0.0204 C.ar      1 <0>        -0.3365
      3 C3          1.2043   -0.6725   -0.0131 C.ar      1 <0>         0.0812
      4 C4          0.0021   -0.0041    0.0020 C.ar      1 <0>        -0.1963
      5 C5         -1.1935   -0.7121    0.0154 C.ar      1 <0>         0.3449
      6 C6         -1.1784   -2.1193    0.0019 C.ar      1 <0>        -0.3229
      7 C7         -2.4402   -2.8704    0.0104 C.2       1 <0>         0.3789
      8 O1         -3.4985   -2.2780    0.0233 O.2       1 <0>        -0.4467
      9 N1         -0.0180    1.4760    0.0102 N.pl3     1 <0>         0.0595
     10 O2          1.0284    2.0993    0.0035 O.2       1 <0>        -0.2474
     11 O3         -1.0810    2.0706    0.0184 O.3       1 <0>        -0.1510
     12 C8          2.5214   -2.7826   -0.0355 C.2       1 <0>         0.3944
     13 O4          3.5587   -2.1543   -0.0417 O.2       1 <0>        -0.4929
     14 H1          0.0600   -3.8774   -0.0189 H         1 <0>         0.1314
     15 H2          2.1294   -0.1151   -0.0189 H         1 <0>         0.1388
     16 H3         -2.4259   -3.9503    0.0052 H         1 <0>         0.0842
     17 H4          2.5440   -3.8624   -0.0412 H         1 <0>         0.0941
     18 O5         -2.3732   -0.0480    0.0362 O.3       1 <0>        -0.5717
@<TRIPOS>BOND
     1    1    6 ar
     2    1    2 ar
     3    1   14 1
     4    2    3 ar
     5    2   12 1
     6    3    4 ar
     7    3   15 1
     8    4    5 ar
     9    4    9 1
    10    5    6 ar
    11    5   18 1
    12    6    7 1
    13    7    8 2
    14    7   16 1
    15    9   10 2
    16    9   11 1
    17   12   13 2
    18   12   17 1
@<TRIPOS>MOLECULE
ZINC37266912
   40    41     0     0     0
SMALL
USER_CHARGES

@<TRIPOS>ATOM
      1 C1         -1.2474    1.1105   -0.0614 C.3       1 <0>         0.0310
      2 O1         -1.3449   -0.2987   -0.2774 O.3       1 <0>        -0.3856
      3 C2         -0.2857   -0.8400   -1.0693 C.3       1 <0>         0.0911
      4 C3         -0.6800   -0.7949   -2.5474 C.3       1 <0>        -0.1549
      5 C4          0.4714   -1.3438   -3.3958 C.3       1 <0>         0.1363
      6 N1          0.8231   -2.6835   -2.9057 N.am      1 <0>        -0.6421
      7 C5          1.1317   -2.8555   -1.4796 C.3       1 <0>         0.1020
      8 C6         -0.0271   -2.2897   -0.6526 C.3       1 <0>        -0.1336
      9 C7          0.8614   -3.7347   -3.7483 C.2       1 <0>         0.7113
     10 O2          0.2250   -3.7073   -4.7840 O.2       1 <0>        -0.5815
     11 N2          1.6051   -4.8164   -3.4429 N.am      1 <0>        -0.6224
     12 C8          2.5534   -4.7803   -2.3212 C.3       1 <0>         0.0861
     13 C9          3.9335   -5.2107   -2.8282 C.3       1 <0>        -0.1350
     14 C10         3.8189   -6.5757   -3.5107 C.3       1 <0>        -0.0935
     15 C11         2.8748   -6.4703   -4.7106 C.3       1 <0>        -0.1655
     16 H1          3.2549   -5.7239   -5.4081 H         1 <0>         0.0657
     17 C12         1.4787   -6.0560   -4.2214 C.3       1 <0>         0.1540
     18 C13         2.7884   -7.8067   -5.4016 C.2       1 <0>         0.4989
     19 O3          1.7666   -8.1267   -5.9846 O.co2     1 <0>        -0.6954
     20 O4          3.7405   -8.5680   -5.3777 O.co2     1 <0>        -0.6969
     21 H2         -0.3134    1.3354    0.4537 H         1 <0>         0.0402
     22 H3         -1.2668    1.6273   -1.0208 H         1 <0>         0.0406
     23 H4         -2.0876    1.4437    0.5479 H         1 <0>         0.0839
     24 H5          0.6190   -0.2515   -0.9169 H         1 <0>         0.0608
     25 H6         -1.5704   -1.4034   -2.7051 H         1 <0>         0.0776
     26 H7         -0.8867    0.2353   -2.8375 H         1 <0>         0.0728
     27 H8          0.1595   -1.4063   -4.4384 H         1 <0>         0.0947
     28 H9          1.3353   -0.6847   -3.3096 H         1 <0>         0.0606
     29 H10         1.2554   -3.9155   -1.2578 H         1 <0>         0.1064
     30 H11         2.0494   -2.3198   -1.2371 H         1 <0>         0.0683
     31 H12         0.2309   -2.3235    0.4059 H         1 <0>         0.0803
     32 H13        -0.9237   -2.8842   -0.8282 H         1 <0>         0.0767
     33 H14         2.6100   -3.7673   -1.9230 H         1 <0>         0.0964
     34 H15         2.2215   -5.4642   -1.5400 H         1 <0>         0.0651
     35 H16         4.3036   -4.4762   -3.5434 H         1 <0>         0.0603
     36 H17         4.6241   -5.2810   -1.9878 H         1 <0>         0.0669
     37 H18         4.8039   -6.8955   -3.8507 H         1 <0>         0.0691
     38 H19         3.4253   -7.3042   -2.8019 H         1 <0>         0.0546
     39 H20         1.0609   -6.8418   -3.5920 H         1 <0>         0.0592
     40 H21         0.8259   -5.8849   -5.0774 H         1 <0>         0.0957
@<TRIPOS>BOND
     1    1    2 1
     2    1   21 1
     3    1   22 1
     4    1   23 1
     5    2    3 1
     6    3    8 1
     7    3    4 1
     8    3   24 1
     9    4    5 1
    10    4   25 1
    11    4   26 1
    12    5    6 1
    13    5   27 1
    14    5   28 1
    15    6    7 1
    16    6    9 am
    17    7    8 1
    18    7   29 1
    19    7   30 1
    20    8   31 1
    21    8   32 1
    22    9   10 2
    23    9   11 am
    24   11   17 1
    25   11   12 1
    26   12   13 1
    27   12   33 1
    28   12   34 1
    29   13   14 1
    30   13   35 1
    31   13   36 1
    32   14   15 1
    33   14   37 1
    34   14   38 1
    35   15   16 1
    36   15   17 1
    37   15   18 1
    38   17   39 1
    39   17   40 1
    40   18   19 2
    41   18   20 1
@<TRIPOS>MOLECULE
ZINC42280708
   27    27     0     0     0
SMALL
USER_CHARGES

@<TRIPOS>ATOM
      1 C1         -0.0225    1.8097    0.0120 C.3       1 <0>        -0.6525
      2 S1          0.0021   -0.0041    0.0020 S.o2      1 <0>         2.5031
      3 O1          0.8352   -0.4880    1.0465 O.2       1 <0>        -0.9358
      4 O2         -1.3147   -0.5105   -0.1678 O.2       1 <0>        -0.9466
      5 C2          0.8454   -0.4373   -1.4831 C.ar      1 <0>        -0.6761
      6 C3          0.1325   -0.6125   -2.6560 C.ar      1 <0>        -0.0245
      7 C4          0.7872   -0.9531   -3.8259 C.ar      1 <0>        -0.1591
      8 C5          2.1571   -1.1199   -3.8299 C.ar      1 <0>        -0.0146
      9 C6          2.8815   -0.9443   -2.6510 C.ar      1 <0>        -0.0736
     10 C7          2.2159   -0.5957   -1.4754 C.ar      1 <0>         0.0185
     11 C8          4.3507   -1.1221   -2.6482 C.2       1 <0>         0.5186
     12 O3          5.0504   -0.9512   -1.5035 O.3       1 <0>        -0.7022
     13 N1          4.9687   -1.4426   -3.7460 N.2       1 <0>        -1.0681
     14 S2          6.6127   -1.6416   -3.7428 S.o2      1 <0>         2.5730
     15 O4          7.1326   -0.3589   -3.4211 O.2       1 <0>        -1.0037
     16 O5          6.8419   -2.7519   -2.8861 O.2       1 <0>        -1.0025
     17 C9          7.0331   -2.0751   -5.4534 C.3       1 <0>        -0.6508
     18 H1          1.0001    2.1870    0.0043 H         1 <0>         0.1333
     19 H2         -0.5497    2.1708   -0.8711 H         1 <0>         0.1293
     20 H3         -0.5327    2.1613    0.9088 H         1 <0>         0.1283
     21 H4         -0.9397   -0.4830   -2.6579 H         1 <0>         0.1362
     22 H5          0.2251   -1.0891   -4.7380 H         1 <0>         0.1304
     23 H6          2.6672   -1.3861   -4.7438 H         1 <0>         0.1473
     24 H7          2.7718   -0.4544   -0.5603 H         1 <0>         0.1519
     25 H8          6.7258   -1.2682   -6.1187 H         1 <0>         0.1167
     26 H9          8.1096   -2.2244   -5.5363 H         1 <0>         0.1063
     27 H10         6.5163   -2.9932   -5.7330 H         1 <0>         0.1170
@<TRIPOS>BOND
     1    1    2 1
     2    1   18 1
     3    1   19 1
     4    1   20 1
     5    2    3 2
     6    2    4 2
     7    2    5 1
     8    5   10 ar
     9    5    6 ar
    10    6    7 ar
    11    6   21 1
    12    7    8 ar
    13    7   22 1
    14    8    9 ar
    15    8   23 1
    16    9   10 ar
    17    9   11 1
    18   10   24 1
    19   11   12 1
    20   11   13 2
    21   13   14 1
    22   14   15 2
    23   14   16 2
    24   14   17 1
    25   17   25 1
    26   17   26 1
    27   17   27 1
@<TRIPOS>MOLECULE
ZINC49417819
   27    27     0     0     0
SMALL
USER_CHARGES

@<TRIPOS>ATOM
      1 C1         -0.0187    1.5258    0.0104 C.3       1 <0>        -0.1263
      2 C2          0.0021   -0.0041    0.0020 C.3       1 <0>        -0.5821
      3 C3          0.7182   -0.4975   -1.2568 C.3       1 <0>        -0.1390
      4 S1          0.8794   -0.6050    1.4716 S.o2      1 <0>         2.5745
      5 O1          0.7544   -2.0168    1.5731 O.2       1 <0>        -1.0074
      6 O2          2.1525    0.0185    1.5707 O.2       1 <0>        -1.0026
      7 N1          0.0171   -0.0111    2.7546 N.2       1 <0>        -1.0668
      8 C4          0.3983   -0.2715    3.9713 C.2       1 <0>         0.5564
      9 O3          1.4988   -1.0272    4.1880 O.3       1 <0>        -0.7228
     10 C5         -0.3711    0.2583    5.1160 C.2       1 <0>        -0.2022
     11 C6         -1.5366    1.0514    5.0460 C.2       1 <0>         0.0974
     12 N2         -1.9190    1.3172    6.2652 N.2       1 <0>        -0.3253
     13 N3         -1.0276    0.7146    7.1600 N.pl3     1 <0>        -0.3840
     14 C7         -0.0877    0.0653    6.4509 C.2       1 <0>         0.0921
     15 C8         -1.1080    0.7761    8.6215 C.3       1 <0>         0.1062
     16 H1          1.0039    1.9031    0.0027 H         1 <0>         0.0634
     17 H2         -0.5459    1.8868   -0.8726 H         1 <0>         0.0574
     18 H3         -0.5289    1.8773    0.9072 H         1 <0>         0.0792
     19 H4         -1.0205   -0.3814    0.0098 H         1 <0>         0.1241
     20 H5          1.7408   -0.1202   -1.2645 H         1 <0>         0.0650
     21 H6          0.7330   -1.5874   -1.2628 H         1 <0>         0.0640
     22 H7          0.1910   -0.1364   -2.1398 H         1 <0>         0.0685
     23 H8         -2.0263    1.3809    4.1415 H         1 <0>         0.1917
     24 H9          0.7386   -0.5018    6.8534 H         1 <0>         0.1808
     25 H10        -1.7059   -0.0585    8.9879 H         1 <0>         0.0695
     26 H11        -0.1047    0.7171    9.0434 H         1 <0>         0.0837
     27 H12        -1.5733    1.7153    8.9206 H         1 <0>         0.0845
@<TRIPOS>BOND
     1    1    2 1
     2    1   16 1
     3    1   17 1
     4    1   18 1
     5    2    3 1
     6    2    4 1
     7    2   19 1
     8    3   20 1
     9    3   21 1
    10    3   22 1
    11    4    5 2
    12    4    6 2
    13    4    7 1
    14    7    8 2
    15    8    9 1
    16    8   10 1
    17   10   14 2
    18   10   11 1
    19   11   12 2
    20   11   23 1
    21   12   13 1
    22   13   14 1
    23   13   15 1
    24   14   24 1
    25   15   25 1
    26   15   26 1
    27   15   27 1
@<TRIPOS>MOLECULE
ZINC62716034
   29    30     0     0     0
SMALL
USER_CHARGES

@<TRIPOS>ATOM
      1 C1         -0.0184    1.5028    0.0103 C.3       1 <0>        -0.1236
      2 C2          0.0021   -0.0041    0.0020 C.2       1 <0>         0.1123
      3 C3          0.0060   -0.7011   -1.1977 C.2       1 <0>        -0.3628
      4 C4          0.0253   -2.0810   -1.1922 C.2       1 <0>         0.4967
      5 N1          0.0405   -2.7740   -0.0231 N.am      1 <0>        -0.5150
      6 C5          0.0369   -2.1345    1.1616 C.2       1 <0>         0.5643
      7 O1          0.0504   -2.7741    2.1995 O.2       1 <0>        -0.5805
      8 C6          0.0232   -0.7191    1.2025 C.2       1 <0>        -0.3303
      9 C7          0.0257   -0.0296    2.4576 C.1       1 <0>         0.3179
     10 N2          0.0276    0.5174    3.4532 N.1       1 <0>        -0.5034
     11 C8          0.0608   -4.2386   -0.0525 C.3       1 <0>         0.1339
     12 H1          0.0837   -4.6269    0.9657 H         1 <0>         0.1222
     13 C9          1.2999   -4.7255   -0.8220 C.3       1 <0>        -0.1458
     14 C10         1.1671   -6.2354   -1.1351 C.3       1 <0>        -0.5672
     15 S1         -0.6549   -6.4712   -1.2215 S.o2      1 <0>         2.3740
     16 O2         -1.0551   -7.3626   -0.1897 O.2       1 <0>        -0.9456
     17 O3         -1.0220   -6.7479   -2.5660 O.2       1 <0>        -0.9398
     18 C11        -1.2039   -4.7668   -0.7880 C.3       1 <0>        -0.5838
     19 O4          0.0285   -2.7515   -2.3638 O.3       1 <0>        -0.6570
     20 H2          1.0042    1.8801    0.0026 H         1 <0>         0.0768
     21 H3         -0.5455    1.8639   -0.8728 H         1 <0>         0.0724
     22 H4         -0.5286    1.8543    0.9071 H         1 <0>         0.0636
     23 H5         -0.0063   -0.1643   -2.1348 H         1 <0>         0.1320
     24 H6          1.3884   -4.1689   -1.7550 H         1 <0>         0.1226
     25 H7          2.1907   -4.5585   -0.2164 H         1 <0>         0.0898
     26 H8          1.6335   -6.4744   -2.0908 H         1 <0>         0.1400
     27 H9          1.5969   -6.8357   -0.3332 H         1 <0>         0.1344
     28 H10        -2.0668   -4.7883   -0.1223 H         1 <0>         0.1362
     29 H11        -1.4133   -4.1805   -1.6826 H         1 <0>         0.1655
@<TRIPOS>BOND
     1    1    2 1
     2    1   20 1
     3    1   21 1
     4    1   22 1
     5    2    8 2
     6    2    3 1
     7    3    4 2
     8    3   23 1
     9    4    5 1
    10    4   19 1
    11    5    6 am
    12    5   11 1
    13    6    7 2
    14    6    8 1
    15    8    9 1
    16    9   10 3
    17   11   12 1
    18   11   18 1
    19   11   13 1
    20   13   14 1
    21   13   24 1
    22   13   25 1
    23   14   15 1
    24   14   26 1
    25   14   27 1
    26   15   16 2
    27   15   17 2
    28   15   18 1
    29   18   28 1
    30   18   29 1
@<TRIPOS>MOLECULE
ZINC13332720
   58    61     0     0     0
SMALL
USER_CHARGES
8-[[4-[(4-methyl-1-piperidyl)sulfonyl]benzoyl]amino]-3,4-dihydro-2H-1,5-benzodioxepine-7-carboxylic acid
@<TRIPOS>ATOM
      1 C1          0.0478    0.1179    0.0538 C.3       1 <0>        -0.1493
      2 C2          0.0328    1.6478    0.0412 C.3       1 <0>        -0.0885
      3 C3         -0.7146    2.1401   -1.2003 C.3       1 <0>        -0.1338
      4 C4         -0.7576    3.6714   -1.1917 C.3       1 <0>         0.1204
      5 N1          0.6146    4.1824   -1.0713 N.pl3     1 <0>        -0.9953
      6 C5          1.4522    3.7032    0.0367 C.3       1 <0>         0.1198
      7 C6          1.4705    2.1716    0.0143 C.3       1 <0>        -0.1351
      8 S1          1.2058    5.2780   -2.1632 S.o2      1 <0>         2.6918
      9 O1          0.0808    5.9438   -2.7202 O.2       1 <0>        -0.9550
     10 O2          2.2574    5.9755   -1.5099 O.2       1 <0>        -0.9527
     11 C7          1.9471    4.3607   -3.4723 C.ar      1 <0>        -0.6609
     12 C8          3.2870    4.0224   -3.4035 C.ar      1 <0>        -0.0262
     13 C9          3.8724    3.3001   -4.4227 C.ar      1 <0>        -0.0965
     14 C10         3.1124    2.9198   -5.5302 C.ar      1 <0>        -0.0688
     15 C11         1.7624    3.2690   -5.5957 C.ar      1 <0>        -0.0812
     16 C12         1.1881    3.9869   -4.5671 C.ar      1 <0>        -0.0323
     17 C13         3.7342    2.1503   -6.6283 C.2       1 <0>         0.5475
     18 O3          3.0698    1.8202   -7.5912 O.2       1 <0>        -0.5234
     19 N2          5.0378    1.8147   -6.5620 N.am      1 <0>        -0.6322
     20 C14         5.6015    1.0114   -7.5509 C.ar      1 <0>         0.1792
     21 C15         5.1814    1.1320   -8.8675 C.ar      1 <0>        -0.1339
     22 C16         5.7475    0.3345   -9.8479 C.ar      1 <0>         0.0804
     23 C17         6.7292   -0.5970   -9.5193 C.ar      1 <0>         0.0332
     24 C18         7.1534   -0.7314   -8.2149 C.ar      1 <0>        -0.0534
     25 C19         6.5918    0.0740   -7.2160 C.ar      1 <0>        -0.1312
     26 C20         7.0377   -0.0621   -5.8207 C.2       1 <0>         0.4988
     27 O4          6.4814    0.5657   -4.9410 O.co2     1 <0>        -0.6322
     28 O5          7.2706   -1.3792  -10.4994 O.3       1 <0>        -0.3167
     29 C21         8.0842   -0.7037  -11.4603 C.3       1 <0>         0.0574
     30 C22         7.2289   -0.1052  -12.5659 C.3       1 <0>        -0.1846
     31 C23         6.3038    0.9878  -12.0544 C.3       1 <0>         0.0597
     32 O6          5.3413    0.4533  -11.1439 O.3       1 <0>        -0.3172
     33 H1          0.5790   -0.2330    0.9385 H         1 <0>         0.0553
     34 H2         -0.9761   -0.2554    0.0729 H         1 <0>         0.0539
     35 H3          0.5512   -0.2479   -0.8411 H         1 <0>         0.0568
     36 H4         -0.4702    2.0134    0.9364 H         1 <0>         0.0713
     37 H5         -0.1981    1.7957   -2.0963 H         1 <0>         0.0704
     38 H6         -1.7314    1.7475   -1.1924 H         1 <0>         0.0756
     39 H7         -1.3513    4.0155   -0.3448 H         1 <0>         0.0754
     40 H8         -1.2008    4.0297   -2.1208 H         1 <0>         0.0906
     41 H9          1.0387    4.0499    0.9838 H         1 <0>         0.0757
     42 H10         2.4672    4.0825   -0.0820 H         1 <0>         0.0923
     43 H11         2.0089    1.8014    0.8868 H         1 <0>         0.0774
     44 H12         1.9664    1.8269   -0.8931 H         1 <0>         0.0720
     45 H13         3.8748    4.3208   -2.5481 H         1 <0>         0.1462
     46 H14         4.9172    3.0329   -4.3658 H         1 <0>         0.1479
     47 H15         1.1688    2.9775   -6.4496 H         1 <0>         0.1467
     48 H16         0.1437    4.2574   -4.6164 H         1 <0>         0.1443
     49 H17         5.5836    2.1325   -5.8258 H         1 <0>         0.4261
     50 H18         4.4174    1.8495   -9.1281 H         1 <0>         0.1485
     51 H19         7.9151   -1.4548   -7.9640 H         1 <0>         0.1483
     52 H20         8.6384    0.0931  -10.9643 H         1 <0>         0.0561
     53 H21         8.7881   -1.4127  -11.8961 H         1 <0>         0.0993
     54 H22         7.8828    0.3147  -13.3302 H         1 <0>         0.0853
     55 H23         6.6272   -0.8959  -13.0141 H         1 <0>         0.0809
     56 H24         6.8950    1.7489  -11.5453 H         1 <0>         0.0557
     57 H25         5.7851    1.4427  -12.8983 H         1 <0>         0.0991
     58 O7          8.0630   -0.8830   -5.5178 O.co2     1 <0>        -0.7389
@<TRIPOS>BOND
     1    1    2 1
     2    1   33 1
     3    1   34 1
     4    1   35 1
     5    2    7 1
     6    2    3 1
     7    2   36 1
     8    3    4 1
     9    3   37 1
    10    3   38 1
    11    4    5 1
    12    4   39 1
    13    4   40 1
    14    5    6 1
    15    5    8 1
    16    6    7 1
    17    6   41 1
    18    6   42 1
    19    7   43 1
    20    7   44 1
    21    8    9 2
    22    8   10 2
    23    8   11 1
    24   11   16 ar
    25   11   12 ar
    26   12   13 ar
    27   12   45 1
    28   13   14 ar
    29   13   46 1
    30   14   15 ar
    31   14   17 1
    32   15   16 ar
    33   15   47 1
    34   16   48 1
    35   17   18 2
    36   17   19 am
    37   19   20 1
    38   19   49 1
    39   20   25 ar
    40   20   21 ar
    41   21   22 ar
    42   21   50 1
    43   22   32 1
    44   22   23 ar
    45   23   24 ar
    46   23   28 1
    47   24   25 ar
    48   24   51 1
    49   25   26 1
    50   26   27 2
    51   26   58 1
    52   28   29 1
    53   29   30 1
    54   29   52 1
    55   29   53 1
    56   30   31 1
    57   30   54 1
    58   30   55 1
    59   31   32 1
    60   31   56 1
    61   31   57 1
@<TRIPOS>MOLECULE
ZINC20168195
   60    63     0     0     0
SMALL
USER_CHARGES
(5S)-4-(2,5-dimethylbenzoyl)-3-hydroxy-1-(2-morpholinoethyl)-5-(4-nitrophenyl)-5H-pyrrol-2-one
@<TRIPOS>ATOM
      1 C1          3.7532    2.9652    2.6165 C.3       1 <0>        -0.1126
      2 C2          3.0120    2.7303    1.3256 C.ar      1 <0>        -0.0914
      3 C3          3.5541    3.1662    0.1290 C.ar      1 <0>        -0.1182
      4 C4          2.8801    2.9551   -1.0609 C.ar      1 <0>        -0.1217
      5 C5          1.6619    2.3080   -1.0617 C.ar      1 <0>        -0.0677
      6 C6          1.1091    1.8657    0.1418 C.ar      1 <0>        -0.1013
      7 C7          1.7924    2.0867    1.3398 C.ar      1 <0>        -0.0900
      8 C8         -0.1965    1.1717    0.1487 C.2       1 <0>         0.4633
      9 O1         -0.2434   -0.0347    0.2985 O.2       1 <0>        -0.4810
     10 C9         -1.4340    1.9366   -0.0310 C.2       1 <0>        -0.4839
     11 C10        -2.6966    1.4499    0.0063 C.2       1 <0>         0.2853
     12 C11        -3.6502    2.5562   -0.2222 C.2       1 <0>         0.5087
     13 O2         -4.8594    2.4405   -0.2469 O.2       1 <0>        -0.5206
     14 N1         -2.9811    3.7101   -0.3980 N.am      1 <0>        -0.6106
     15 C12        -1.5465    3.4214   -0.2871 C.3       1 <0>         0.2504
     16 H1         -1.0309    3.7251   -1.2101 H         1 <0>         0.0785
     17 C13        -0.9468    4.1920    0.8608 C.ar      1 <0>        -0.0146
     18 C14        -1.5665    4.1852    2.0965 C.ar      1 <0>        -0.0946
     19 C15        -1.0135    4.8878    3.1508 C.ar      1 <0>        -0.0593
     20 C16         0.1531    5.6061    2.9666 C.ar      1 <0>        -0.0535
     21 C17         0.7696    5.6175    1.7294 C.ar      1 <0>        -0.0491
     22 C18         0.2198    4.9103    0.6766 C.ar      1 <0>        -0.1058
     23 N2          0.7424    6.3626    4.0941 N.pl3     1 <0>         0.0355
     24 O3          1.7705    6.9951    3.9319 O.2       1 <0>        -0.1694
     25 O4          0.1991    6.3525    5.1842 O.3       1 <0>        -0.1722
     26 C19        -3.5792    5.0237   -0.6488 C.3       1 <0>         0.1382
     27 C20        -3.8409    5.7278    0.6842 C.3       1 <0>         0.0321
     28 N3         -4.4406    7.0451    0.4327 N.3       1 <0>        -0.5310
     29 C21        -3.4884    7.9367   -0.2453 C.3       1 <0>         0.0121
     30 C22        -4.1719    9.2744   -0.5408 C.3       1 <0>         0.0629
     31 O5         -4.6619    9.8338    0.6808 O.3       1 <0>        -0.3866
     32 C23        -5.5923    8.9920    1.3671 C.3       1 <0>         0.0635
     33 C24        -4.9232    7.6514    1.6820 C.3       1 <0>         0.0176
     34 O6         -3.0323    0.1570    0.2196 O.3       1 <0>        -0.5975
     35 C25         0.9295    2.0786   -2.3586 C.3       1 <0>        -0.1250
     36 H2          4.6982    3.4878    2.4068 H         1 <0>         0.0643
     37 H3          3.9672    1.9993    3.0974 H         1 <0>         0.0671
     38 H4          3.1352    3.5800    3.2875 H         1 <0>         0.0616
     39 H5          4.5078    3.6731    0.1239 H         1 <0>         0.1173
     40 H6          3.3087    3.2981   -1.9910 H         1 <0>         0.1202
     41 H7          1.3685    1.7508    2.2746 H         1 <0>         0.1155
     42 H8         -2.4803    3.6276    2.2393 H         1 <0>         0.1396
     43 H9         -1.4950    4.8786    4.1175 H         1 <0>         0.1469
     44 H10         1.6811    6.1787    1.5854 H         1 <0>         0.1470
     45 H11         0.7015    4.9192   -0.2900 H         1 <0>         0.1422
     46 H12        -2.8904    5.6305   -1.2550 H         1 <0>         0.0754
     47 H13        -4.5289    4.8971   -1.1893 H         1 <0>         0.0923
     48 H14        -4.5297    5.1210    1.2903 H         1 <0>         0.0819
     49 H15        -2.8912    5.8544    1.2247 H         1 <0>         0.0443
     50 H16        -2.6164    8.1038    0.4041 H         1 <0>         0.0417
     51 H17        -3.1603    7.4742   -1.1879 H         1 <0>         0.0893
     52 H18        -3.4464    9.9639   -0.9971 H         1 <0>         0.0978
     53 H19        -5.0102    9.1125   -1.2344 H         1 <0>         0.0611
     54 H20        -5.9041    9.4773    2.3037 H         1 <0>         0.0983
     55 H21        -6.4733    8.8237    0.7304 H         1 <0>         0.0612
     56 H22        -5.6516    6.9788    2.1585 H         1 <0>         0.0884
     57 H23        -4.0744    7.8139    2.3625 H         1 <0>         0.0419
     58 H24        -0.0152    1.5520   -2.1580 H         1 <0>         0.0789
     59 H25         1.5535    1.4697   -3.0293 H         1 <0>         0.0673
     60 H26         0.7156    3.0467   -2.8351 H         1 <0>         0.0680
@<TRIPOS>BOND
     1    1    2 1
     2    1   36 1
     3    1   37 1
     4    1   38 1
     5    2    7 ar
     6    2    3 ar
     7    3    4 ar
     8    3   39 1
     9    4    5 ar
    10    4   40 1
    11    5    6 ar
    12    5   35 1
    13    6    7 ar
    14    6    8 1
    15    7   41 1
    16    8    9 2
    17    8   10 1
    18   10   15 1
    19   10   11 2
    20   11   12 1
    21   11   34 1
    22   12   13 2
    23   12   14 am
    24   14   15 1
    25   14   26 1
    26   15   16 1
    27   15   17 1
    28   17   22 ar
    29   17   18 ar
    30   18   19 ar
    31   18   42 1
    32   19   20 ar
    33   19   43 1
    34   20   21 ar
    35   20   23 1
    36   21   22 ar
    37   21   44 1
    38   22   45 1
    39   23   24 2
    40   23   25 1
    41   26   27 1
    42   26   46 1
    43   26   47 1
    44   27   28 1
    45   27   48 1
    46   27   49 1
    47   28   33 1
    48   28   29 1
    49   29   30 1
    50   29   50 1
    51   29   51 1
    52   30   31 1
    53   30   52 1
    54   30   53 1
    55   31   32 1
    56   32   33 1
    57   32   54 1
    58   32   55 1
    59   33   56 1
    60   33   57 1
    61   35   58 1
    62   35   59 1
    63   35   60 1
@<TRIPOS>MOLECULE
ZINC33794725
   61    65     0     0     0
SMALL
USER_CHARGES
(4Z,5S)-1-(5-acetyl-4-methyl-thiazol-2-yl)-4-[2,3-dihydro-1,4-benzodioxin-6-yl(hydroxy)methylene]-5-(4-dimethylaminophenyl)pyrrolidine-2,3-dione
@<TRIPOS>ATOM
      1 C1          6.1241    6.7821   -0.0319 C.3       1 <0>        -0.1073
      2 C2          6.8937    5.4900   -0.1259 C.2       1 <0>         0.2123
      3 C3          8.2848    5.4835   -0.2121 C.2       1 <0>        -0.3769
      4 S1          8.5996    3.7262   -0.2953 S.3       1 <0>         0.1489
      5 C4          6.9484    3.1955   -0.2124 C.2       1 <0>         0.3654
      6 N1          6.2810    4.3379   -0.1349 N.2       1 <0>        -0.5552
      7 N2          6.4540    1.9061   -0.2294 N.am      1 <0>        -0.4884
      8 C5          5.0375    1.5361   -0.1552 C.3       1 <0>         0.2640
      9 H1          4.5992    1.9330    0.7724 H         1 <0>         0.0847
     10 C6          4.9819    0.0268   -0.2073 C.2       1 <0>        -0.4888
     11 C7          3.8496   -0.7637   -0.1705 C.2       1 <0>         0.3998
     12 C8          2.5366   -0.1559    0.0948 C.ar      1 <0>        -0.0624
     13 C9          2.3624    0.6859    1.1998 C.ar      1 <0>        -0.0942
     14 C10         1.1321    1.2519    1.4450 C.ar      1 <0>        -0.1183
     15 C11         0.0588    0.9914    0.5994 C.ar      1 <0>         0.0464
     16 C12         0.2253    0.1566   -0.5041 C.ar      1 <0>         0.0474
     17 C13         1.4570   -0.4166   -0.7568 C.ar      1 <0>        -0.0739
     18 O1         -0.8139   -0.1015   -1.3448 O.3       1 <0>        -0.3078
     19 C14        -2.1267    0.1879   -0.8522 C.3       1 <0>         0.0181
     20 C15        -2.1002    1.5782   -0.2030 C.3       1 <0>         0.0211
     21 O2         -1.1490    1.5553    0.8669 O.3       1 <0>        -0.3080
     22 O3          3.9481   -2.0943   -0.3779 O.2       1 <0>        -0.5965
     23 C16         6.3120   -0.4097   -0.3006 C.2       1 <0>         0.3851
     24 O4          6.6806   -1.5690   -0.3630 O.3       1 <0>        -0.4630
     25 C17         7.1938    0.7874   -0.3102 C.2       1 <0>         0.4753
     26 O5          8.4052    0.7585   -0.3848 O.2       1 <0>        -0.4800
     27 C18         4.2894    2.1210   -1.3253 C.ar      1 <0>        -0.1196
     28 C19         4.8041    2.0005   -2.6031 C.ar      1 <0>        -0.0516
     29 C20         4.1182    2.5303   -3.6783 C.ar      1 <0>        -0.1926
     30 C21         2.9156    3.1949   -3.4737 C.ar      1 <0>         0.2084
     31 C22         2.4042    3.3190   -2.1882 C.ar      1 <0>        -0.1887
     32 C23         3.0925    2.7819   -1.1181 C.ar      1 <0>        -0.0428
     33 N3          2.2225    3.7374   -4.5582 N.pl3     1 <0>        -0.6415
     34 C24         0.9546    4.4382   -4.3405 C.3       1 <0>         0.0993
     35 C25         2.7632    3.6054   -5.9133 C.3       1 <0>         0.0977
     36 C26         9.1910    6.5626   -0.2296 C.2       1 <0>         0.4493
     37 O6          8.7785    7.7034   -0.1631 O.2       1 <0>        -0.4732
     38 C27        10.6717    6.3015   -0.3309 C.3       1 <0>        -0.2012
     39 H2          6.8265    7.6286   -0.0399 H         1 <0>         0.1059
     40 H3          5.5436    6.7960    0.9023 H         1 <0>         0.0787
     41 H4          5.4404    6.8649   -0.8897 H         1 <0>         0.0785
     42 H5          3.1928    0.8912    1.8591 H         1 <0>         0.1351
     43 H6          0.9995    1.9012    2.2978 H         1 <0>         0.1327
     44 H7          1.5864   -1.0655   -1.6104 H         1 <0>         0.1339
     45 H8         -2.8428    0.1743   -1.6871 H         1 <0>         0.1173
     46 H9         -2.4151   -0.5705   -0.1094 H         1 <0>         0.0746
     47 H10        -1.8070    2.3275   -0.9530 H         1 <0>         0.0750
     48 H11        -3.1003    1.8204    0.1859 H         1 <0>         0.1179
     49 H12         5.7415    1.4878   -2.7609 H         1 <0>         0.1072
     50 H13         4.5186    2.4320   -4.6765 H         1 <0>         0.1136
     51 H14         1.4697    3.8354   -2.0257 H         1 <0>         0.1125
     52 H15         2.6957    2.8784   -0.1183 H         1 <0>         0.1181
     53 H16         0.5611    4.7923   -5.3048 H         1 <0>         0.0678
     54 H17         1.1204    5.2976   -3.6743 H         1 <0>         0.0504
     55 H18         0.2302    3.7509   -3.8791 H         1 <0>         0.0501
     56 H19         2.0832    4.0914   -6.6284 H         1 <0>         0.0682
     57 H20         2.8611    2.5395   -6.1668 H         1 <0>         0.0519
     58 H21         3.7514    4.0862   -5.9622 H         1 <0>         0.0501
     59 H22        11.2137    7.2587   -0.3302 H         1 <0>         0.0861
     60 H23        10.8855    5.7597   -1.2640 H         1 <0>         0.0912
     61 H24        10.9967    5.6955    0.5277 H         1 <0>         0.0915
@<TRIPOS>BOND
     1    1    2 1
     2    1   39 1
     3    1   40 1
     4    1   41 1
     5    2    6 1
     6    2    3 2
     7    3    4 1
     8    3   36 1
     9    4    5 1
    10    5    6 2
    11    5    7 1
    12    7   25 am
    13    7    8 1
    14    8   10 1
    15    8   27 1
    16    8    9 1
    17   10   23 2
    18   10   11 1
    19   11   22 2
    20   11   12 1
    21   12   17 ar
    22   12   13 ar
    23   13   14 ar
    24   13   42 1
    25   14   15 ar
    26   14   43 1
    27   15   21 1
    28   15   16 ar
    29   16   17 ar
    30   16   18 1
    31   17   44 1
    32   18   19 1
    33   19   20 1
    34   19   45 1
    35   19   46 1
    36   20   21 1
    37   20   47 1
    38   20   48 1
    39   23   25 1
    40   23   24 1
    41   25   26 2
    42   27   32 ar
    43   27   28 ar
    44   28   29 ar
    45   28   49 1
    46   29   30 ar
    47   29   50 1
    48   30   31 ar
    49   30   33 1
    50   31   32 ar
    51   31   51 1
    52   32   52 1
    53   33   34 1
    54   33   35 1
    55   34   53 1
    56   34   54 1
    57   34   55 1
    58   35   56 1
    59   35   57 1
    60   35   58 1
    61   36   37 2
    62   36   38 1
    63   38   59 1
    64   38   60 1
    65   38   61 1
@<TRIPOS>MOLECULE
ZINC40475530
   50    54     0     0     0
SMALL
USER_CHARGES

@<TRIPOS>ATOM
      1 C1         -0.9544   -0.8014    0.7360 C.3       1 <0>         0.0265
      2 O1         -0.0043   -0.0209    0.0079 O.3       1 <0>        -0.3062
      3 C2          0.6024   -0.6183   -1.0525 C.ar      1 <0>         0.1003
      4 C3          0.2858   -1.9249   -1.3880 C.ar      1 <0>        -0.1713
      5 C4          0.9031   -2.5306   -2.4665 C.ar      1 <0>        -0.0979
      6 C5          1.8372   -1.8356   -3.2121 C.ar      1 <0>        -0.0879
      7 C6          2.1580   -0.5320   -2.8825 C.ar      1 <0>        -0.1616
      8 C7          1.5383    0.0831   -1.8064 C.ar      1 <0>         0.1026
      9 O2          1.8484    1.3675   -1.4845 O.3       1 <0>        -0.3052
     10 C8          2.8178    2.0255   -2.3026 C.3       1 <0>         0.0235
     11 C9          2.5075   -2.5009   -4.3865 C.3       1 <0>         0.0849
     12 H1          2.5295   -3.5799   -4.2336 H         1 <0>         0.1142
     13 C10         3.9076   -1.9824   -4.5290 C.2       1 <0>        -0.2944
     14 C11         4.4025   -1.0352   -5.3805 C.2       1 <0>         0.1105
     15 N1          5.7117   -0.8164   -5.2760 N.2       1 <0>        -0.5553
     16 C12         6.4553   -1.4574   -4.3997 C.2       1 <0>         0.2814
     17 S1          8.1869   -1.3024   -4.1131 S.3       1 <0>        -0.7129
     18 S2          5.3519   -2.4624   -3.6186 S.3       1 <0>         0.0672
     19 S3          3.3255   -0.1745   -6.5170 S.3       1 <0>         0.0111
     20 C13         1.7114   -0.6347   -5.8349 C.3       1 <0>        -0.1557
     21 H2          1.5144   -0.1200   -4.8945 H         1 <0>         0.1604
     22 C14         1.7491   -2.1823   -5.6519 C.3       1 <0>        -0.1134
     23 H3          2.2537   -2.6374   -6.5041 H         1 <0>         0.1476
     24 C15         0.2894   -2.5035   -5.7246 C.2       1 <0>         0.5594
     25 O3         -0.2841   -3.4170   -5.1712 O.2       1 <0>        -0.4349
     26 N2         -0.2634   -1.5645   -6.5363 N.am      1 <0>        -0.5382
     27 C16         0.5613   -0.4940   -6.7941 C.2       1 <0>         0.5724
     28 O4          0.4094    0.3755   -7.6252 O.2       1 <0>        -0.4225
     29 C17        -1.5640   -1.6637   -7.0504 C.ar      1 <0>         0.1861
     30 C18        -2.3564   -2.7581   -6.7313 C.ar      1 <0>        -0.1443
     31 C19        -3.6375   -2.8528   -7.2389 C.ar      1 <0>        -0.0283
     32 C20        -4.1309   -1.8591   -8.0641 C.ar      1 <0>        -0.0676
     33 C21        -3.3439   -0.7681   -8.3841 C.ar      1 <0>        -0.0275
     34 C22        -2.0641   -0.6650   -7.8749 C.ar      1 <0>        -0.1467
     35 N3         -5.5042   -1.9636   -8.6065 N.pl3     1 <0>         0.0374
     36 O5         -6.1933   -2.9171   -8.3278 O.2       1 <0>        -0.1605
     37 O6         -5.9369   -1.0954   -9.3281 O.3       1 <0>        -0.1604
     38 H4         -1.7617   -1.1054    0.0698 H         1 <0>         0.0532
     39 H5         -0.4638   -1.6869    1.1401 H         1 <0>         0.0553
     40 H6         -1.3624   -0.2071    1.5537 H         1 <0>         0.0989
     41 H7         -0.4430   -2.4702   -0.8068 H         1 <0>         0.1361
     42 H8          0.6554   -3.5490   -2.7270 H         1 <0>         0.1344
     43 H9          2.8883    0.0086   -3.4663 H         1 <0>         0.1393
     44 H10         2.9720    3.0410   -1.9378 H         1 <0>         0.1031
     45 H11         3.7594    1.4779   -2.2619 H         1 <0>         0.0596
     46 H12         2.4614    2.0595   -3.3321 H         1 <0>         0.0540
     47 H13        -1.9714   -3.5347   -6.0871 H         1 <0>         0.1766
     48 H14        -4.2542   -3.7041   -6.9913 H         1 <0>         0.1612
     49 H15        -3.7318    0.0064   -9.0291 H         1 <0>         0.1614
     50 H16        -1.4515    0.1897   -8.1212 H         1 <0>         0.1741
@<TRIPOS>BOND
     1    1    2 1
     2    1   38 1
     3    1   39 1
     4    1   40 1
     5    2    3 1
     6    3    8 ar
     7    3    4 ar
     8    4    5 ar
     9    4   41 1
    10    5    6 ar
    11    5   42 1
    12    6    7 ar
    13    6   11 1
    14    7    8 ar
    15    7   43 1
    16    8    9 1
    17    9   10 1
    18   10   44 1
    19   10   45 1
    20   10   46 1
    21   11   12 1
    22   11   22 1
    23   11   13 1
    24   13   18 1
    25   13   14 2
    26   14   15 1
    27   14   19 1
    28   15   16 2
    29   16   17 1
    30   16   18 1
    31   19   20 1
    32   20   21 1
    33   20   27 1
    34   20   22 1
    35   22   23 1
    36   22   24 1
    37   24   25 2
    38   24   26 am
    39   26   27 am
    40   26   29 1
    41   27   28 2
    42   29   34 ar
    43   29   30 ar
    44   30   31 ar
    45   30   47 1
    46   31   32 ar
    47   31   48 1
    48   32   33 ar
    49   32   35 1
    50   33   34 ar
    51   33   49 1
    52   34   50 1
    53   35   36 2
    54   35   37 1
@<TRIPOS>MOLECULE
ZINC33756856
   37    39     0     0     0
SMALL
USER_CHARGES

@<TRIPOS>ATOM
      1 C1         -0.0167    1.3781    0.0096 C.ar      1 <0>        -0.0763
      2 C2          1.1709    2.0855    0.0021 C.ar      1 <0>        -0.0169
      3 C3          2.3773    1.4107   -0.0130 C.ar      1 <0>        -0.6124
      4 C4          2.3961    0.0285   -0.0201 C.ar      1 <0>        -0.0191
      5 C5          1.2084   -0.6789   -0.0117 C.ar      1 <0>        -0.0770
      6 C6          0.0021   -0.0041    0.0020 C.ar      1 <0>        -0.0060
      7 N1         -1.2696   -0.7615    0.0105 N.pl3     1 <0>         0.0283
      8 O1         -2.3247   -0.1714    0.0241 O.2       1 <0>        -0.1505
      9 O2         -1.2532   -1.9704    0.0039 O.3       1 <0>        -0.1512
     10 S1          3.8911    2.3124   -0.0238 S.o2      1 <0>         2.6402
     11 O3          4.8717    1.4529   -0.5884 O.2       1 <0>        -0.9364
     12 O4          3.5973    3.5927   -0.5658 O.2       1 <0>        -0.9346
     13 C7          4.3553    2.5712    1.6561 C.2       1 <0>        -0.9109
     14 C8          5.1213    1.8042    2.4685 C.2       1 <0>         0.2617
     15 N2          5.3128    2.2399    3.7013 N.2       1 <0>        -0.6611
     16 C9          4.7787    3.3702    4.1127 C.2       1 <0>         0.4162
     17 S2          3.9520    3.9202    2.7539 S.3       1 <0>         0.1460
     18 N3          4.8778    3.9658    5.3604 N.2       1 <0>        -1.0010
     19 S3          5.7616    3.2386    6.5572 S.o2      1 <0>         2.6354
     20 O5          5.0876    2.0308    6.8830 O.2       1 <0>        -0.9958
     21 O6          7.1176    3.2638    6.1332 O.2       1 <0>        -0.9788
     22 C10         5.6599    4.2717    7.9809 C.ar      1 <0>        -0.6190
     23 C11         5.0324    3.8134    9.1240 C.ar      1 <0>        -0.0063
     24 C12         4.9525    4.6246   10.2417 C.ar      1 <0>        -0.0578
     25 C13         5.5008    5.8948   10.2154 C.ar      1 <0>        -0.0560
     26 C14         6.1281    6.3530    9.0726 C.ar      1 <0>        -0.1230
     27 C15         6.2130    5.5394    7.9565 C.ar      1 <0>         0.0611
     28 Cl1         7.0075    6.1124    6.5232 Cl        1 <0>        -0.0216
     29 Cl2         4.1639    4.0492   11.6772 Cl        1 <0>        -0.0600
     30 H1         -0.9591    1.9053    0.0259 H         1 <0>         0.1626
     31 H2          1.1563    3.1654    0.0076 H         1 <0>         0.1677
     32 H3          3.3385   -0.4987   -0.0326 H         1 <0>         0.1670
     33 H4          1.2231   -1.7588   -0.0179 H         1 <0>         0.1623
     34 H5          5.5561    0.8776    2.1240 H         1 <0>         0.1664
     35 H6          4.6042    2.8222    9.1444 H         1 <0>         0.1588
     36 H7          5.4382    6.5282   11.0879 H         1 <0>         0.1478
     37 H8          6.5557    7.3445    9.0520 H         1 <0>         0.1503
@<TRIPOS>BOND
     1    1    6 ar
     2    1    2 ar
     3    1   30 1
     4    2    3 ar
     5    2   31 1
     6    3    4 ar
     7    3   10 1
     8    4    5 ar
     9    4   32 1
    10    5    6 ar
    11    5   33 1
    12    6    7 1
    13    7    8 2
    14    7    9 1
    15   10   11 2
    16   10   12 2
    17   10   13 1
    18   13   17 1
    19   13   14 2
    20   14   15 1
    21   14   34 1
    22   15   16 2
    23   16   17 1
    24   16   18 1
    25   18   19 1
    26   19   20 2
    27   19   21 2
    28   19   22 1
    29   22   27 ar
    30   22   23 ar
    31   23   24 ar
    32   23   35 1
    33   24   25 ar
    34   24   29 1
    35   25   26 ar
    36   25   36 1
    37   26   27 ar
    38   26   37 1
    39   27   28 1
@<TRIPOS>MOLECULE
ZINC65097481
   43    46     0     0     0
SMALL
USER_CHARGES

@<TRIPOS>ATOM
      1 C1          0.1224    1.3481   -0.5675 C.ar      1 <0>        -0.2318
      2 C2          1.3390    1.9635   -0.8006 C.ar      1 <0>        -0.0874
      3 C3          2.5092    1.2305   -0.7383 C.ar      1 <0>         0.0247
      4 C4          2.4628   -0.1277   -0.4406 C.ar      1 <0>         0.2771
      5 C5          1.2408   -0.7425   -0.2072 C.ar      1 <0>        -0.2839
      6 C6          0.0726   -0.0033   -0.2711 C.ar      1 <0>         0.1411
      7 F1         -1.1175   -0.6009   -0.0435 F         1 <0>        -0.1504
      8 N1          3.6449   -0.8718   -0.3773 N.2       1 <0>        -1.0733
      9 S1          3.5877   -2.4885   -0.0228 S.o2      1 <0>         2.6362
     10 O1          3.1251   -2.5945    1.3166 O.2       1 <0>        -1.0111
     11 O2          2.9248   -3.1193   -1.1099 O.2       1 <0>        -1.0131
     12 C7          5.2464   -3.0827   -0.0313 C.2       1 <0>        -0.7088
     13 C8          6.1278   -3.1519    0.9922 C.2       1 <0>        -0.0025
     14 C9          7.3859   -3.6738    0.6910 C.2       1 <0>        -0.1220
     15 C10         7.6298   -4.0685   -0.5893 C.2       1 <0>        -0.1792
     16 S2          6.1865   -3.7526   -1.3885 S.3       1 <0>         0.3387
     17 C11         8.4299   -3.7952    1.7369 C.2       1 <0>         0.3228
     18 N2          9.6687   -4.2764    1.5519 N.2       1 <0>        -0.4666
     19 C12        10.3343   -4.2450    2.6787 C.2       1 <0>         0.2495
     20 O3          9.5317   -3.7367    3.6296 O.3       1 <0>        -0.0944
     21 N3          8.2960   -3.4443    2.9944 N.2       1 <0>        -0.3124
     22 C13        11.7342   -4.6939    2.8731 C.2       1 <0>         0.6148
     23 O4         12.4099   -5.0086    1.9137 O.2       1 <0>        -0.4735
     24 N4         12.2569   -4.7528    4.1139 N.am      1 <0>        -0.5977
     25 C14        11.4175   -4.5260    5.3010 C.3       1 <0>         0.0544
     26 C15        11.6441   -5.6824    6.2816 C.3       1 <0>         0.0497
     27 O5         13.0464   -5.8335    6.5151 O.3       1 <0>        -0.3759
     28 C16        13.8000   -6.1774    5.3499 C.3       1 <0>         0.0467
     29 C17        13.6826   -5.0519    4.3219 C.3       1 <0>         0.0790
     30 F2          3.6970    1.8324   -0.9665 F         1 <0>        -0.1409
     31 H1         -0.7902    1.9239   -0.6125 H         1 <0>         0.1257
     32 H2          1.3745    3.0178   -1.0320 H         1 <0>         0.1294
     33 H3          1.2015   -1.7967    0.0241 H         1 <0>         0.1175
     34 H4          5.8718   -2.8208    1.9878 H         1 <0>         0.1583
     35 H5          8.5376   -4.4898   -0.9951 H         1 <0>         0.2042
     36 H6         11.6964   -3.5842    5.7734 H         1 <0>         0.0938
     37 H7         10.3681   -4.4936    5.0079 H         1 <0>         0.1132
     38 H8         11.1395   -5.4656    7.2231 H         1 <0>         0.1155
     39 H9         11.2444   -6.6033    5.8571 H         1 <0>         0.0599
     40 H10        14.8465   -6.3167    5.6212 H         1 <0>         0.1141
     41 H11        13.4081   -7.1001    4.9220 H         1 <0>         0.0601
     42 H12        14.1326   -5.3676    3.3807 H         1 <0>         0.1096
     43 H13        14.1935   -4.1639    4.6940 H         1 <0>         0.0891
@<TRIPOS>BOND
     1    1    6 ar
     2    1    2 ar
     3    1   31 1
     4    2    3 ar
     5    2   32 1
     6    3    4 ar
     7    3   30 1
     8    4    5 ar
     9    4    8 1
    10    5    6 ar
    11    5   33 1
    12    6    7 1
    13    8    9 1
    14    9   10 2
    15    9   11 2
    16    9   12 1
    17   12   16 1
    18   12   13 2
    19   13   14 1
    20   13   34 1
    21   14   15 2
    22   14   17 1
    23   15   16 1
    24   15   35 1
    25   17   21 2
    26   17   18 1
    27   18   19 2
    28   19   20 1
    29   19   22 1
    30   20   21 1
    31   22   23 2
    32   22   24 am
    33   24   29 1
    34   24   25 1
    35   25   26 1
    36   25   36 1
    37   25   37 1
    38   26   27 1
    39   26   38 1
    40   26   39 1
    41   27   28 1
    42   28   29 1
    43   28   40 1
    44   28   41 1
    45   29   42 1
    46   29   43 1
@<TRIPOS>MOLECULE
ZINC13396431
   63    65     0     0     0
SMALL
USER_CHARGES
(3S)-1-[4-[4-(4-ethoxyphenoxy)butanoylamino]phenyl]sulfonylpiperidine-3-carboxylic acid
@<TRIPOS>ATOM
      1 C1         12.2743   11.7535   -1.1661 C.3       1 <0>        -0.1527
      2 C2         11.2074   10.6650   -1.0320 C.3       1 <0>         0.0548
      3 O1          9.9122   11.2681   -1.0071 O.3       1 <0>        -0.3171
      4 C3          8.8448   10.4336   -0.8912 C.ar      1 <0>         0.0913
      5 C4          7.5589   10.9525   -0.8608 C.ar      1 <0>        -0.1106
      6 C5          6.4746   10.1048   -0.7430 C.ar      1 <0>        -0.1102
      7 C6          6.6718    8.7347   -0.6560 C.ar      1 <0>         0.0972
      8 C7          7.9579    8.2161   -0.6815 C.ar      1 <0>        -0.1703
      9 C8          9.0419    9.0635   -0.8037 C.ar      1 <0>        -0.1696
     10 O2          5.6044    7.9002   -0.5401 O.3       1 <0>        -0.3106
     11 C9          5.8812    6.5008   -0.4552 C.3       1 <0>         0.0621
     12 C10         4.5668    5.7277   -0.3305 C.3       1 <0>        -0.1089
     13 C11         4.8631    4.2294   -0.2397 C.3       1 <0>        -0.1336
     14 C12         3.5685    3.4678   -0.1169 C.2       1 <0>         0.5099
     15 O3          2.5128    4.0647   -0.1034 O.2       1 <0>        -0.4989
     16 N1          3.5839    2.1235   -0.0221 N.am      1 <0>        -0.6781
     17 C13         2.3811    1.4085   -0.0193 C.ar      1 <0>         0.1975
     18 C14         2.2689    0.2383    0.7201 C.ar      1 <0>        -0.1694
     19 C15         1.0801   -0.4646    0.7214 C.ar      1 <0>         0.0003
     20 C16         0.0023   -0.0046   -0.0128 C.ar      1 <0>        -0.6894
     21 C17         0.1111    1.1598   -0.7507 C.ar      1 <0>         0.0064
     22 C18         1.2971    1.8676   -0.7559 C.ar      1 <0>        -0.1416
     23 S1         -1.5127   -0.9043   -0.0083 S.o2      1 <0>         2.6904
     24 O4         -2.1936   -0.5589   -1.2068 O.2       1 <0>        -0.9546
     25 O5         -1.1866   -2.2471    0.3226 O.2       1 <0>        -0.9653
     26 N2         -2.4270   -0.3175    1.2415 N.pl3     1 <0>        -0.9941
     27 C19        -2.3336   -0.9131    2.5813 C.3       1 <0>         0.1221
     28 C20        -2.0318    0.2034    3.5924 C.3       1 <0>        -0.1335
     29 C21        -3.0921    1.2996    3.4648 C.3       1 <0>        -0.0944
     30 C22        -3.0423    1.8984    2.0573 C.3       1 <0>        -0.1413
     31 H1         -2.0483    2.3040    1.8689 H         1 <0>         0.0716
     32 C23        -3.3515    0.8048    1.0301 C.3       1 <0>         0.1420
     33 C24        -4.0648    2.9996    1.9427 C.2       1 <0>         0.4688
     34 O6         -4.9500    2.9193    1.1243 O.co2     1 <0>        -0.6381
     35 H2         13.2623   11.2935   -1.1851 H         1 <0>         0.0776
     36 H3         12.1137   12.3076   -2.0909 H         1 <0>         0.0664
     37 H4         12.2069   12.4348   -0.3180 H         1 <0>         0.0665
     38 H5         11.3680   10.1109   -0.1072 H         1 <0>         0.0603
     39 H6         11.2748    9.9837   -1.8801 H         1 <0>         0.0602
     40 H7          7.4053   12.0194   -0.9289 H         1 <0>         0.1383
     41 H8          5.4734   10.5089   -0.7190 H         1 <0>         0.1404
     42 H9          8.1117    7.1496   -0.6093 H         1 <0>         0.1301
     43 H10        10.0432    8.6594   -0.8277 H         1 <0>         0.1290
     44 H11         6.5019    6.3056    0.4193 H         1 <0>         0.0624
     45 H12         6.4079    6.1795   -1.3537 H         1 <0>         0.0622
     46 H13         3.9461    5.9229   -1.2050 H         1 <0>         0.0862
     47 H14         4.0401    6.0490    0.5680 H         1 <0>         0.0870
     48 H15         5.4839    4.0342    0.6348 H         1 <0>         0.1011
     49 H16         5.3899    3.9080   -1.1382 H         1 <0>         0.1020
     50 H17         4.4288    1.6516    0.0442 H         1 <0>         0.4132
     51 H18         3.1102   -0.1213    1.2940 H         1 <0>         0.1337
     52 H19         0.9906   -1.3721    1.3000 H         1 <0>         0.1423
     53 H20        -0.7324    1.5163   -1.3234 H         1 <0>         0.1452
     54 H21         1.3812    2.7773   -1.3319 H         1 <0>         0.1431
     55 H22        -3.2789   -1.3933    2.8344 H         1 <0>         0.0744
     56 H23        -1.5309   -1.6502    2.5984 H         1 <0>         0.0835
     57 H24        -1.0470    0.6245    3.3899 H         1 <0>         0.0627
     58 H25        -2.0517   -0.2062    4.6023 H         1 <0>         0.0696
     59 H26        -2.8967    2.0811    4.1991 H         1 <0>         0.0711
     60 H27        -4.0790    0.8724    3.6430 H         1 <0>         0.0577
     61 H28        -3.2205    1.2015    0.0234 H         1 <0>         0.0881
     62 H29        -4.3782    0.4612    1.1568 H         1 <0>         0.0803
     63 O7         -3.9920    4.0696    2.7498 O.co2     1 <0>        -0.7665
@<TRIPOS>BOND
     1    1    2 1
     2    1   35 1
     3    1   36 1
     4    1   37 1
     5    2    3 1
     6    2   38 1
     7    2   39 1
     8    3    4 1
     9    4    9 ar
    10    4    5 ar
    11    5    6 ar
    12    5   40 1
    13    6    7 ar
    14    6   41 1
    15    7    8 ar
    16    7   10 1
    17    8    9 ar
    18    8   42 1
    19    9   43 1
    20   10   11 1
    21   11   12 1
    22   11   44 1
    23   11   45 1
    24   12   13 1
    25   12   46 1
    26   12   47 1
    27   13   14 1
    28   13   48 1
    29   13   49 1
    30   14   15 2
    31   14   16 am
    32   16   17 1
    33   16   50 1
    34   17   22 ar
    35   17   18 ar
    36   18   19 ar
    37   18   51 1
    38   19   20 ar
    39   19   52 1
    40   20   21 ar
    41   20   23 1
    42   21   22 ar
    43   21   53 1
    44   22   54 1
    45   23   24 2
    46   23   25 2
    47   23   26 1
    48   26   32 1
    49   26   27 1
    50   27   28 1
    51   27   55 1
    52   27   56 1
    53   28   29 1
    54   28   57 1
    55   28   58 1
    56   29   30 1
    57   29   59 1
    58   29   60 1
    59   30   31 1
    60   30   32 1
    61   30   33 1
    62   32   61 1
    63   32   62 1
    64   33   34 2
    65   33   63 1
@<TRIPOS>MOLECULE
ZINC27988093
   62    65     0     0     0
SMALL
USER_CHARGES
(5S)-3-hydroxy-5-(3-hydroxyphenyl)-1-(2-methoxyethyl)-4-[4-(1-piperidylsulfonyl)benzoyl]-5H-pyrrol-2-one
@<TRIPOS>ATOM
      1 C1         -3.8268   -3.1708    8.8959 C.3       1 <0>         0.0303
      2 O1         -4.6774   -2.1427    8.3844 O.3       1 <0>        -0.3698
      3 C2         -4.9328   -2.2439    6.9820 C.3       1 <0>         0.0416
      4 C3         -5.8491   -1.0986    6.5466 C.3       1 <0>         0.1365
      5 N1         -5.1524    0.1781    6.7225 N.am      1 <0>        -0.6088
      6 C4         -4.3164    0.8508    5.7213 C.3       1 <0>         0.2654
      7 H1         -3.4892    0.1918    5.4187 H         1 <0>         0.0641
      8 C5         -3.8248    2.1240    6.3695 C.2       1 <0>        -0.5076
      9 C6         -4.3393    2.1488    7.6213 C.2       1 <0>         0.2719
     10 C7         -5.1662    0.9414    7.8304 C.2       1 <0>         0.5172
     11 O2         -5.7651    0.6749    8.8533 O.2       1 <0>        -0.5194
     12 O3         -4.1317    3.1246    8.5350 O.3       1 <0>        -0.6504
     13 C8         -2.9536    3.1344    5.7621 C.2       1 <0>         0.4977
     14 O4         -3.3789    4.2535    5.5457 O.2       1 <0>        -0.4612
     15 C9         -1.5580    2.7934    5.4125 C.ar      1 <0>        -0.0751
     16 C10        -0.7484    3.7293    4.7653 C.ar      1 <0>        -0.0976
     17 C11         0.5527    3.4048    4.4425 C.ar      1 <0>        -0.0352
     18 C12         1.0563    2.1551    4.7585 C.ar      1 <0>        -0.6682
     19 C13         0.2578    1.2210    5.3950 C.ar      1 <0>        -0.0373
     20 C14        -1.0434    1.5341    5.7283 C.ar      1 <0>        -0.0867
     21 S1          2.7194    1.7488    4.3418 S.o2      1 <0>         2.6919
     22 O5          3.0858    2.5955    3.2610 O.2       1 <0>        -0.9584
     23 O6          2.7816    0.3319    4.2545 O.2       1 <0>        -0.9578
     24 N2          3.6670    2.1858    5.6276 N.pl3     1 <0>        -0.9968
     25 C15         4.2548    3.5304    5.7016 C.3       1 <0>         0.1190
     26 C16         3.8801    4.1589    7.0474 C.3       1 <0>        -0.1392
     27 C17         4.3080    3.2228    8.1799 C.3       1 <0>        -0.1166
     28 C18         3.5699    1.8887    8.0477 C.3       1 <0>        -0.1398
     29 C19         3.9410    1.2344    6.7132 C.3       1 <0>         0.1192
     30 C20        -5.1322    1.1746    4.4963 C.ar      1 <0>        -0.0365
     31 C21        -6.4103    1.6847    4.6325 C.ar      1 <0>        -0.1315
     32 C22        -7.1609    1.9836    3.5107 C.ar      1 <0>        -0.0802
     33 C23        -6.6358    1.7724    2.2503 C.ar      1 <0>        -0.1709
     34 C24        -5.3542    1.2604    2.1110 C.ar      1 <0>         0.1497
     35 C25        -4.6005    0.9670    3.2385 C.ar      1 <0>        -0.2099
     36 O7         -4.8352    1.0522    0.8724 O.3       1 <0>        -0.5150
     37 H2         -3.6805   -3.0220    9.9759 H         1 <0>         0.0840
     38 H3         -2.8536   -3.1295    8.3849 H         1 <0>         0.0376
     39 H4         -4.2916   -4.1522    8.7206 H         1 <0>         0.0357
     40 H5         -3.9827   -2.1831    6.4310 H         1 <0>         0.0502
     41 H6         -5.4207   -3.2060    6.7666 H         1 <0>         0.0541
     42 H7         -6.1182   -1.2266    5.4877 H         1 <0>         0.0905
     43 H8         -6.7619   -1.1058    7.1603 H         1 <0>         0.0876
     44 H9         -1.1402    4.7049    4.5179 H         1 <0>         0.1393
     45 H10         1.1798    4.1276    3.9417 H         1 <0>         0.1378
     46 H11         0.6558    0.2461    5.6350 H         1 <0>         0.1381
     47 H12        -1.6643    0.8056    6.2284 H         1 <0>         0.1440
     48 H13         5.3490    3.4574    5.6158 H         1 <0>         0.0742
     49 H14         3.8629    4.1476    4.8797 H         1 <0>         0.0911
     50 H15         4.3927    5.1261    7.1558 H         1 <0>         0.0754
     51 H16         2.7919    4.3140    7.0894 H         1 <0>         0.0716
     52 H17         5.3925    3.0485    8.1215 H         1 <0>         0.0630
     53 H18         4.0622    3.6827    9.1484 H         1 <0>         0.0655
     54 H19         3.8599    1.2256    8.8760 H         1 <0>         0.0759
     55 H20         2.4847    2.0651    8.0820 H         1 <0>         0.0723
     56 H21         3.3404    0.3250    6.5640 H         1 <0>         0.0913
     57 H22         5.0094    0.9727    6.7105 H         1 <0>         0.0742
     58 H23        -6.8227    1.8501    5.6168 H         1 <0>         0.1187
     59 H24        -8.1587    2.3822    3.6196 H         1 <0>         0.1234
     60 H25        -7.2228    2.0054    1.3742 H         1 <0>         0.1207
     61 H26        -3.6006    0.5728    3.1328 H         1 <0>         0.1215
     62 H27        -3.8188    0.6461    0.7631 H         1 <0>         0.4273
@<TRIPOS>BOND
     1    1    2 1
     2    1   37 1
     3    1   38 1
     4    1   39 1
     5    2    3 1
     6    3    4 1
     7    3   40 1
     8    3   41 1
     9    4    5 1
    10    4   42 1
    11    4   43 1
    12    5   10 am
    13    5    6 1
    14    6    7 1
    15    6    8 1
    16    6   30 1
    17    8    9 2
    18    8   13 1
    19    9   10 1
    20    9   12 1
    21   10   11 2
    22   13   14 2
    23   13   15 1
    24   15   20 ar
    25   15   16 ar
    26   16   17 ar
    27   16   44 1
    28   17   18 ar
    29   17   45 1
    30   18   19 ar
    31   18   21 1
    32   19   20 ar
    33   19   46 1
    34   20   47 1
    35   21   22 2
    36   21   23 2
    37   21   24 1
    38   24   29 1
    39   24   25 1
    40   25   26 1
    41   25   48 1
    42   25   49 1
    43   26   27 1
    44   26   50 1
    45   26   51 1
    46   27   28 1
    47   27   52 1
    48   27   53 1
    49   28   29 1
    50   28   54 1
    51   28   55 1
    52   29   56 1
    53   29   57 1
    54   30   35 ar
    55   30   31 ar
    56   31   32 ar
    57   31   58 1
    58   32   33 ar
    59   32   59 1
    60   33   34 ar
    61   33   60 1
    62   34   35 ar
    63   34   36 1
    64   35   61 1
    65   36   62 1
@<TRIPOS>MOLECULE
ZINC13316223
   60    62     0     0     0
SMALL
USER_CHARGES

@<TRIPOS>ATOM
      1 C1         -0.0900    1.5560   -0.0937 C.3       1 <0>        -0.1749
      2 C2         -0.0139    0.0281   -0.1180 C.3       1 <0>         0.0535
      3 H1          0.4251   -0.2989   -1.0607 H         1 <0>         0.0982
      4 C3          0.8411   -0.4506    1.0269 C.2       1 <0>         0.5136
      5 O1          0.3484   -1.1108    1.9170 O.2       1 <0>        -0.4655
      6 N1          2.1533   -0.1450    1.0618 N.am      1 <0>        -0.6707
      7 C4          2.9634   -0.6544    2.0826 C.ar      1 <0>         0.1551
      8 C5          2.4057   -0.9994    3.3070 C.ar      1 <0>        -0.1316
      9 C6          3.2079   -1.5019    4.3124 C.ar      1 <0>        -0.1020
     10 C7          4.5654   -1.6613    4.1014 C.ar      1 <0>        -0.1392
     11 C8          5.1238   -1.3184    2.8839 C.ar      1 <0>        -0.0977
     12 C9          4.3257   -0.8215    1.8719 C.ar      1 <0>        -0.1113
     13 C10         4.9338   -0.4548    0.5427 C.3       1 <0>        -0.0546
     14 C11         5.9037    0.7136    0.7306 C.3       1 <0>        -0.1439
     15 C12         5.6896   -1.6592   -0.0220 C.3       1 <0>        -0.1428
     16 O2         -1.3289   -0.5165    0.0093 O.3       1 <0>        -0.2249
     17 C13        -2.0615   -0.6285   -1.1263 C.ar      1 <0>         0.2106
     18 C14        -1.4970   -0.3139   -2.3537 C.ar      1 <0>        -0.2528
     19 C15        -2.2438   -0.4288   -3.5089 C.ar      1 <0>         0.0107
     20 C16        -3.5606   -0.8577   -3.4537 C.ar      1 <0>        -0.7310
     21 C17        -4.1385   -1.1747   -2.2446 C.ar      1 <0>         0.0491
     22 C18        -3.3923   -1.0686   -1.0661 C.ar      1 <0>        -0.1779
     23 C19        -4.0012   -1.4109    0.2292 C.2       1 <0>         0.5196
     24 O3         -5.1620   -1.7943    0.2772 O.co2     1 <0>        -0.6889
     25 O4         -3.3466   -1.3120    1.2580 O.co2     1 <0>        -0.6540
     26 S1         -4.5000   -0.9977   -4.9379 S.o2      1 <0>         2.6968
     27 O5         -5.8672   -0.8959   -4.5642 O.2       1 <0>        -0.9527
     28 O6         -3.9009   -0.1207   -5.8819 O.2       1 <0>        -0.9638
     29 N2         -4.2798   -2.5347   -5.5135 N.pl3     1 <0>        -1.0028
     30 C20        -3.1795   -2.8464   -6.4395 C.3       1 <0>         0.0888
     31 C21        -2.4208   -4.0629   -5.8967 C.3       1 <0>         0.0454
     32 O7         -3.3489   -5.1184   -5.6354 O.3       1 <0>        -0.3783
     33 C22        -4.3224   -4.8076   -4.6357 C.3       1 <0>         0.0444
     34 C23        -5.1751   -3.6304   -5.1095 C.3       1 <0>         0.0865
     35 H2          0.9131    1.9714   -0.1908 H         1 <0>         0.0738
     36 H3         -0.7084    1.9022   -0.9218 H         1 <0>         0.0791
     37 H4         -0.5289    1.8829    0.8489 H         1 <0>         0.0799
     38 H5          2.5361    0.4281    0.3792 H         1 <0>         0.4078
     39 H6          1.3458   -0.8745    3.4726 H         1 <0>         0.1552
     40 H7          2.7748   -1.7703    5.2647 H         1 <0>         0.1246
     41 H8          5.1908   -2.0542    4.8894 H         1 <0>         0.1200
     42 H9          6.1842   -1.4437    2.7224 H         1 <0>         0.1222
     43 H10         4.1444   -0.1638   -0.1502 H         1 <0>         0.0701
     44 H11         6.6932    0.4226    1.4235 H         1 <0>         0.0585
     45 H12         6.3436    0.9788   -0.2308 H         1 <0>         0.0580
     46 H13         5.3653    1.5717    1.1329 H         1 <0>         0.0556
     47 H14         4.9987   -2.4916   -0.1559 H         1 <0>         0.0566
     48 H15         6.1295   -1.3940   -0.9834 H         1 <0>         0.0576
     49 H16         6.4791   -1.9502    0.6709 H         1 <0>         0.0583
     50 H17        -0.4718    0.0218   -2.4056 H         1 <0>         0.1320
     51 H18        -1.7993   -0.1825   -4.4619 H         1 <0>         0.1337
     52 H19        -5.1651   -1.5081   -2.2066 H         1 <0>         0.1499
     53 H20        -3.5833   -3.0757   -7.4256 H         1 <0>         0.0811
     54 H21        -2.5045   -1.9933   -6.5079 H         1 <0>         0.0970
     55 H22        -1.6900   -4.3949   -6.6341 H         1 <0>         0.1040
     56 H23        -1.9095   -3.7908   -4.9733 H         1 <0>         0.0581
     57 H24        -4.9597   -5.6754   -4.4659 H         1 <0>         0.1084
     58 H25        -3.8181   -4.5382   -3.7077 H         1 <0>         0.0619
     59 H26        -5.8210   -3.2962   -4.2975 H         1 <0>         0.1039
     60 H27        -5.7833   -3.9400   -5.9594 H         1 <0>         0.0817
@<TRIPOS>BOND
     1    1    2 1
     2    1   35 1
     3    1   36 1
     4    1   37 1
     5    2    3 1
     6    2    4 1
     7    2   16 1
     8    4    5 2
     9    4    6 am
    10    6    7 1
    11    6   38 1
    12    7   12 ar
    13    7    8 ar
    14    8    9 ar
    15    8   39 1
    16    9   10 ar
    17    9   40 1
    18   10   11 ar
    19   10   41 1
    20   11   12 ar
    21   11   42 1
    22   12   13 1
    23   13   14 1
    24   13   15 1
    25   13   43 1
    26   14   44 1
    27   14   45 1
    28   14   46 1
    29   15   47 1
    30   15   48 1
    31   15   49 1
    32   16   17 1
    33   17   22 ar
    34   17   18 ar
    35   18   19 ar
    36   18   50 1
    37   19   20 ar
    38   19   51 1
    39   20   21 ar
    40   20   26 1
    41   21   22 ar
    42   21   52 1
    43   22   23 1
    44   23   24 2
    45   23   25 1
    46   26   27 2
    47   26   28 2
    48   26   29 1
    49   29   34 1
    50   29   30 1
    51   30   31 1
    52   30   53 1
    53   30   54 1
    54   31   32 1
    55   31   55 1
    56   31   56 1
    57   32   33 1
    58   33   34 1
    59   33   57 1
    60   33   58 1
    61   34   59 1
    62   34   60 1
@<TRIPOS>MOLECULE
ZINC40109338
   56    59     0     0     0
SMALL
USER_CHARGES

@<TRIPOS>ATOM
      1 C1          1.9760    1.3676   -3.2293 C.ar      1 <0>        -0.0969
      2 C2          2.5254    2.0880   -2.1887 C.ar      1 <0>        -0.1006
      3 C3          3.1093    1.4203   -1.1101 C.ar      1 <0>        -0.1001
      4 C4          3.1340    0.0247   -1.0904 C.ar      1 <0>        -0.1030
      5 C5          2.5797   -0.6878   -2.1398 C.ar      1 <0>         0.1104
      6 C6          2.0013   -0.0148   -3.2082 C.ar      1 <0>        -0.1935
      7 O1          2.6020   -2.0466   -2.1248 O.3       1 <0>        -0.3093
      8 C7          2.0120   -2.7174   -3.2401 C.3       1 <0>         0.1022
      9 C8          2.1296   -4.2077   -3.0496 C.ar      1 <0>        -0.1042
     10 C9          3.2420   -4.8788   -3.5224 C.ar      1 <0>        -0.0646
     11 C10         3.3511   -6.2453   -3.3479 C.ar      1 <0>        -0.1569
     12 C11         2.3459   -6.9424   -2.6992 C.ar      1 <0>         0.1061
     13 C12         1.2323   -6.2692   -2.2261 C.ar      1 <0>        -0.1573
     14 C13         1.1278   -4.9018   -2.3972 C.ar      1 <0>        -0.0649
     15 F1          2.4513   -8.2784   -2.5284 F         1 <0>        -0.1390
     16 C14         3.6996    2.1888    0.0068 C.2       1 <0>         0.5033
     17 O2          4.1446    1.6062    0.9778 O.2       1 <0>        -0.4658
     18 C15         3.7488    3.6524   -0.0559 C.2       1 <0>        -0.5076
     19 C16         4.8601    4.4196   -0.1502 C.2       1 <0>         0.2691
     20 C17         4.4652    5.8437   -0.1862 C.2       1 <0>         0.5115
     21 O3          5.2360    6.7792   -0.2685 O.2       1 <0>        -0.5312
     22 N1          3.1259    5.9507   -0.1148 N.am      1 <0>        -0.6079
     23 C18         2.5685    4.5954   -0.0344 C.3       1 <0>         0.2613
     24 H1          1.9197    4.4033   -0.8889 H         1 <0>         0.0913
     25 C19         1.7975    4.4312    1.2500 C.ar      1 <0>        -0.0114
     26 C20         2.2174    5.0799    2.3961 C.ar      1 <0>        -0.1004
     27 C21         1.5102    4.9292    3.5742 C.ar      1 <0>        -0.0527
     28 C22         0.3826    4.1301    3.6061 C.ar      1 <0>        -0.0638
     29 C23        -0.0379    3.4821    2.4597 C.ar      1 <0>        -0.0519
     30 C24         0.6670    3.6362    1.2806 C.ar      1 <0>        -0.1139
     31 N2         -0.3741    3.9680    4.8678 N.pl3     1 <0>         0.0415
     32 O4         -0.0062    4.5345    5.8705 O.2       1 <0>        -0.1704
     33 O5         -1.3603    3.2691    4.8957 O.3       1 <0>        -0.1710
     34 C25         2.3592    7.1991   -0.1225 C.3       1 <0>         0.1336
     35 C26         2.0104    7.5744   -1.5641 C.3       1 <0>         0.0589
     36 O6          1.1338    6.5890   -2.1141 O.3       1 <0>        -0.5665
     37 O7          6.1301    3.9568   -0.2024 O.3       1 <0>        -0.6458
     38 H2          1.5207    1.8850   -4.0608 H         1 <0>         0.1262
     39 H3          2.5043    3.1676   -2.2085 H         1 <0>         0.1379
     40 H4          3.5844   -0.4975   -0.2592 H         1 <0>         0.1370
     41 H5          1.5693   -0.5733   -4.0255 H         1 <0>         0.1250
     42 H6          0.9598   -2.4425   -3.3144 H         1 <0>         0.0726
     43 H7          2.5290   -2.4261   -4.1544 H         1 <0>         0.0726
     44 H8          4.0258   -4.3349   -4.0287 H         1 <0>         0.1366
     45 H9          4.2200   -6.7694   -3.7176 H         1 <0>         0.1383
     46 H10         0.4474   -6.8119   -1.7203 H         1 <0>         0.1383
     47 H11         0.2613   -4.3758   -2.0243 H         1 <0>         0.1363
     48 H12         3.0984    5.7043    2.3712 H         1 <0>         0.1413
     49 H13         1.8387    5.4356    4.4698 H         1 <0>         0.1486
     50 H14        -0.9185    2.8574    2.4847 H         1 <0>         0.1491
     51 H15         0.3363    3.1329    0.3841 H         1 <0>         0.1452
     52 H16         1.4416    7.0654    0.4504 H         1 <0>         0.0814
     53 H17         2.9550    7.9941    0.3260 H         1 <0>         0.0951
     54 H18         1.5180    8.5468   -1.5774 H         1 <0>         0.0526
     55 H19         2.9230    7.6212   -2.1584 H         1 <0>         0.0518
     56 H20         0.8705    6.7630   -3.0281 H         1 <0>         0.3754
@<TRIPOS>BOND
     1    1    6 ar
     2    1    2 ar
     3    1   38 1
     4    2    3 ar
     5    2   39 1
     6    3    4 ar
     7    3   16 1
     8    4    5 ar
     9    4   40 1
    10    5    6 ar
    11    5    7 1
    12    6   41 1
    13    7    8 1
    14    8    9 1
    15    8   42 1
    16    8   43 1
    17    9   14 ar
    18    9   10 ar
    19   10   11 ar
    20   10   44 1
    21   11   12 ar
    22   11   45 1
    23   12   13 ar
    24   12   15 1
    25   13   14 ar
    26   13   46 1
    27   14   47 1
    28   16   17 2
    29   16   18 1
    30   18   23 1
    31   18   19 2
    32   19   20 1
    33   19   37 1
    34   20   21 2
    35   20   22 am
    36   22   23 1
    37   22   34 1
    38   23   24 1
    39   23   25 1
    40   25   30 ar
    41   25   26 ar
    42   26   27 ar
    43   26   48 1
    44   27   28 ar
    45   27   49 1
    46   28   29 ar
    47   28   31 1
    48   29   30 ar
    49   29   50 1
    50   30   51 1
    51   31   32 2
    52   31   33 1
    53   34   35 1
    54   34   52 1
    55   34   53 1
    56   35   36 1
    57   35   54 1
    58   35   55 1
    59   36   56 1
@<TRIPOS>MOLECULE
ZINC66200242
   49    51     0     0     0
SMALL
USER_CHARGES

@<TRIPOS>ATOM
      1 C1         -1.6330    0.7209   -6.0176 C.3       1 <0>        -0.1099
      2 C2         -1.5214   -0.7383   -5.6580 C.ar      1 <0>        -0.1193
      3 C3         -0.8696   -1.1154   -4.4982 C.ar      1 <0>        -0.0646
      4 C4         -0.7653   -2.4522   -4.1661 C.ar      1 <0>        -0.2015
      5 C5         -1.3155   -3.4172   -4.9969 C.ar      1 <0>         0.1508
      6 C6         -1.9697   -3.0366   -6.1603 C.ar      1 <0>        -0.1190
      7 C7         -2.0757   -1.6972   -6.4852 C.ar      1 <0>        -0.0531
      8 Br1        -2.7208   -4.3486   -7.2964 Br        1 <0>        -0.0271
      9 O1         -1.2138   -4.7332   -4.6725 O.3       1 <0>        -0.2741
     10 C8         -0.5266   -5.0514   -3.4606 C.3       1 <0>         0.0425
     11 C9         -0.5138   -6.5459   -3.2679 C.2       1 <0>         0.5113
     12 O2         -1.0413   -7.2676   -4.0877 O.2       1 <0>        -0.4810
     13 N1          0.0838   -7.0806   -2.1846 N.am      1 <0>        -0.6694
     14 C10         0.0124   -8.4591   -1.9552 C.ar      1 <0>         0.1733
     15 C11        -0.0761   -8.9448   -0.6573 C.ar      1 <0>        -0.1660
     16 C12        -0.1463  -10.3060   -0.4342 C.ar      1 <0>        -0.0050
     17 C13        -0.1285  -11.1849   -1.5016 C.ar      1 <0>        -0.6309
     18 C14        -0.0400  -10.7044   -2.7953 C.ar      1 <0>        -0.0041
     19 C15         0.0243   -9.3441   -3.0254 C.ar      1 <0>        -0.1432
     20 S1         -0.2183  -12.9207   -1.2127 S.o2      1 <0>         2.6271
     21 O3          0.3656  -13.5515   -2.3443 O.2       1 <0>        -1.0170
     22 O4          0.2556  -13.1375    0.1093 O.2       1 <0>        -1.0183
     23 N2         -1.8216  -13.3352   -1.2147 N.2       1 <0>        -1.0453
     24 C16        -2.1984  -14.6589   -1.0082 C.ar      1 <0>         0.4107
     25 C17        -3.5529  -15.0133   -1.0150 C.ar      1 <0>         0.2348
     26 N3         -3.9028  -16.2731   -0.8180 N.ar      1 <0>        -0.4824
     27 C18        -2.9736  -17.1949   -0.6152 C.ar      1 <0>        -0.0515
     28 C19        -1.6392  -16.8468   -0.6078 C.ar      1 <0>         0.0678
     29 N4         -1.2769  -15.5892   -0.8099 N.ar      1 <0>        -0.5463
     30 O5         -4.5036  -14.0667   -1.2226 O.3       1 <0>        -0.2819
     31 C20        -5.8647  -14.5019   -1.2160 C.3       1 <0>         0.0398
     32 H1         -2.5434    1.1336   -5.5830 H         1 <0>         0.0713
     33 H2         -0.7684    1.2583   -5.6281 H         1 <0>         0.0679
     34 H3         -1.6680    0.8262   -7.1020 H         1 <0>         0.0678
     35 H4         -0.4413   -0.3639   -3.8514 H         1 <0>         0.1324
     36 H5         -0.2555   -2.7459   -3.2604 H         1 <0>         0.1372
     37 H6         -2.5881   -1.3999   -7.3883 H         1 <0>         0.1393
     38 H7          0.4979   -4.6834   -3.5166 H         1 <0>         0.0988
     39 H8         -1.0362   -4.5809   -2.6197 H         1 <0>         0.0997
     40 H9          0.5633   -6.5098   -1.5640 H         1 <0>         0.4117
     41 H10        -0.0896   -8.2589    0.1769 H         1 <0>         0.1300
     42 H11        -0.2148  -10.6844    0.5750 H         1 <0>         0.1418
     43 H12        -0.0260  -11.3934   -3.6268 H         1 <0>         0.1411
     44 H13         0.0882   -8.9693   -4.0362 H         1 <0>         0.1425
     45 H14        -3.2621  -18.2232   -0.4545 H         1 <0>         0.1472
     46 H15        -0.8867  -17.6034   -0.4415 H         1 <0>         0.1474
     47 H16        -6.0996  -14.9457   -0.2485 H         1 <0>         0.0463
     48 H17        -6.5198  -13.6489   -1.3931 H         1 <0>         0.0838
     49 H18        -6.0130  -15.2432   -2.0013 H         1 <0>         0.0465
@<TRIPOS>BOND
     1    1    2 1
     2    1   32 1
     3    1   33 1
     4    1   34 1
     5    2    7 ar
     6    2    3 ar
     7    3    4 ar
     8    3   35 1
     9    4    5 ar
    10    4   36 1
    11    5    6 ar
    12    5    9 1
    13    6    7 ar
    14    6    8 1
    15    7   37 1
    16    9   10 1
    17   10   11 1
    18   10   38 1
    19   10   39 1
    20   11   12 2
    21   11   13 am
    22   13   14 1
    23   13   40 1
    24   14   19 ar
    25   14   15 ar
    26   15   16 ar
    27   15   41 1
    28   16   17 ar
    29   16   42 1
    30   17   18 ar
    31   17   20 1
    32   18   19 ar
    33   18   43 1
    34   19   44 1
    35   20   21 2
    36   20   22 2
    37   20   23 1
    38   23   24 1
    39   24   29 ar
    40   24   25 ar
    41   25   26 ar
    42   25   30 1
    43   26   27 ar
    44   27   28 ar
    45   27   45 1
    46   28   29 ar
    47   28   46 1
    48   30   31 1
    49   31   47 1
    50   31   48 1
    51   31   49 1
@<TRIPOS>MOLECULE
ZINC09147553
   49    52     0     0     0
SMALL
USER_CHARGES
[6-[(5-cyclopropylcarbonylamino-1,3,4-thiadiazol-2-yl)sulfanylmethyl]-4-oxo-pyran-3-yl] 2-(4-nitrophenyl)acetate
@<TRIPOS>ATOM
      1 C1         14.5498   -5.5386   -1.7068 C.ar      1 <0>        -0.0982
      2 C2         15.6935   -4.7873   -1.9027 C.ar      1 <0>        -0.0511
      3 C3         16.4059   -4.3165   -0.8157 C.ar      1 <0>        -0.0388
      4 C4         15.9719   -4.5930    0.4674 C.ar      1 <0>        -0.0524
      5 C5         14.8259   -5.3406    0.6633 C.ar      1 <0>        -0.1003
      6 C6         14.1132   -5.8111   -0.4238 C.ar      1 <0>        -0.0315
      7 C7         12.8638   -6.6261   -0.2101 C.3       1 <0>        -0.0753
      8 C8         11.6704   -5.7082   -0.1444 C.2       1 <0>         0.4580
      9 O1         11.8197   -4.5109   -0.2596 O.2       1 <0>        -0.4793
     10 O2         10.4422   -6.2165    0.0417 O.3       1 <0>        -0.2592
     11 C9          9.3977   -5.3468   -0.0210 C.2       1 <0>        -0.1020
     12 C10         8.8455   -4.8533    1.1096 C.2       1 <0>         0.1301
     13 O3          7.8168   -3.9967    1.0548 O.3       1 <0>        -0.1912
     14 C11         7.2913   -3.5911   -0.1068 C.2       1 <0>         0.1371
     15 C12         7.7772   -4.0367   -1.2829 C.2       1 <0>        -0.2520
     16 C13         8.8687   -4.9411   -1.2776 C.2       1 <0>         0.3942
     17 O4          9.3390   -5.3637   -2.3228 O.2       1 <0>        -0.4636
     18 C14         6.1339   -2.6260   -0.1004 C.3       1 <0>        -0.0790
     19 S1          4.5746   -3.5520   -0.0609 S.3       1 <0>         0.0875
     20 C15         3.3351   -2.2996   -0.0570 C.2       1 <0>        -0.0024
     21 N1          3.4569   -0.9804   -0.0770 N.2       1 <0>        -0.2504
     22 N2          2.4524   -0.2178   -0.0701 N.2       1 <0>        -0.2729
     23 C16         1.2158   -0.6871   -0.0425 C.2       1 <0>         0.2905
     24 S2          1.5510   -2.4458   -0.0176 S.3       1 <0>         0.0600
     25 N3          0.0004   -0.0073   -0.0302 N.am      1 <0>        -0.6086
     26 C17        -0.0182    1.3403   -0.0478 C.2       1 <0>         0.5397
     27 O5          1.0236    1.9609   -0.0744 O.2       1 <0>        -0.4634
     28 C18        -1.3335    2.0758   -0.0408 C.3       1 <0>        -0.1964
     29 C19        -1.7248    2.8356   -1.3098 C.3       1 <0>        -0.1476
     30 C20        -1.2879    3.6050   -0.0617 C.3       1 <0>        -0.1406
     31 N4         17.6331   -3.5159   -1.0255 N.pl3     1 <0>         0.0257
     32 O6         18.2606   -3.1008   -0.0677 O.2       1 <0>        -0.1560
     33 O7         18.0154   -3.2724   -2.1560 O.3       1 <0>        -0.1555
     34 H1         13.9955   -5.9099   -2.5560 H         1 <0>         0.1500
     35 H2         16.0323   -4.5710   -2.9051 H         1 <0>         0.1575
     36 H3         16.5285   -4.2251    1.3167 H         1 <0>         0.1572
     37 H4         14.4870   -5.5569    1.6657 H         1 <0>         0.1489
     38 H5         12.9473   -7.1810    0.7243 H         1 <0>         0.1307
     39 H6         12.7397   -7.3246   -1.0376 H         1 <0>         0.1320
     40 H7          9.2383   -5.1538    2.0697 H         1 <0>         0.2152
     41 H8          7.3435   -3.7066   -2.2153 H         1 <0>         0.1731
     42 H9          6.1686   -2.0111   -0.9997 H         1 <0>         0.1432
     43 H10         6.1991   -1.9864    0.7798 H         1 <0>         0.1335
     44 H11        -0.8328   -0.5036   -0.0089 H         1 <0>         0.4318
     45 H12        -2.1330    1.6039    0.5304 H         1 <0>         0.1340
     46 H13        -1.0310    2.8034   -2.1498 H         1 <0>         0.1030
     47 H14        -2.7820    2.8636   -1.5739 H         1 <0>         0.1120
     48 H15        -2.0575    4.1392    0.4955 H         1 <0>         0.1109
     49 H16        -0.3065    4.0790   -0.0801 H         1 <0>         0.1118
@<TRIPOS>BOND
     1    1    6 ar
     2    1    2 ar
     3    1   34 1
     4    2    3 ar
     5    2   35 1
     6    3    4 ar
     7    3   31 1
     8    4    5 ar
     9    4   36 1
    10    5    6 ar
    11    5   37 1
    12    6    7 1
    13    7    8 1
    14    7   38 1
    15    7   39 1
    16    8    9 2
    17    8   10 1
    18   10   11 1
    19   11   16 1
    20   11   12 2
    21   12   13 1
    22   12   40 1
    23   13   14 1
    24   14   15 2
    25   14   18 1
    26   15   16 1
    27   15   41 1
    28   16   17 2
    29   18   19 1
    30   18   42 1
    31   18   43 1
    32   19   20 1
    33   20   24 1
    34   20   21 2
    35   21   22 1
    36   22   23 2
    37   23   24 1
    38   23   25 1
    39   25   26 am
    40   25   44 1
    41   26   27 2
    42   26   28 1
    43   28   30 1
    44   28   29 1
    45   28   45 1
    46   29   30 1
    47   29   46 1
    48   29   47 1
    49   30   48 1
    50   30   49 1
    51   31   32 2
    52   31   33 1
@<TRIPOS>MOLECULE
ZINC00962583
   59    62     0     0     0
SMALL
USER_CHARGES
2-[[(2-chloro-4-nitro-benzoyl)-[[(2S)-tetrahydrofuran-2-yl]methyl]amino]methyl]-N-[[(2S)-tetrahydrofuran-2-yl]methyl]oxazole-4-carboxamide
@<TRIPOS>ATOM
      1 C1          0.1195    1.2011   -0.0979 C.ar      1 <0>        -0.0559
      2 C2         -1.0658    1.8669    0.1357 C.ar      1 <0>        -0.1006
      3 C3         -1.2571    3.1484   -0.3835 C.ar      1 <0>        -0.0755
      4 C4         -0.2494    3.7434   -1.1471 C.ar      1 <0>         0.0069
      5 C5          0.9300    3.0627   -1.3776 C.ar      1 <0>        -0.0516
      6 C6          1.1140    1.7956   -0.8545 C.ar      1 <0>        -0.0102
      7 N1          2.3805    1.0719   -1.1056 N.pl3     1 <0>         0.0218
      8 O1          2.5455   -0.0442   -0.6466 O.2       1 <0>        -0.1407
      9 O2          3.2578    1.5925   -1.7711 O.3       1 <0>        -0.1422
     10 Cl1        -0.4791    5.3339   -1.8036 Cl        1 <0>         0.0011
     11 C7         -2.5222    3.8697   -0.1325 C.2       1 <0>         0.5537
     12 O3         -2.5173    5.0783   -0.0029 O.2       1 <0>        -0.4823
     13 N2         -3.6814    3.1875   -0.0475 N.am      1 <0>        -0.5937
     14 C8         -4.9515    3.9109    0.0521 C.3       1 <0>         0.2123
     15 C9         -5.4945    4.1651   -1.3305 C.2       1 <0>         0.1762
     16 N3         -6.2835    3.3684   -1.9871 N.2       1 <0>        -0.4418
     17 C10        -6.5621    3.9345   -3.1926 C.2       1 <0>        -0.0778
     18 C11        -5.8929    5.1185   -3.2430 C.2       1 <0>         0.0265
     19 O4         -5.2354    5.2462   -2.0794 O.3       1 <0>        -0.1821
     20 C12        -7.4221    3.3690   -4.2479 C.2       1 <0>         0.6048
     21 O5         -7.5872    3.9766   -5.2884 O.2       1 <0>        -0.5351
     22 N4         -8.0255    2.1786   -4.0597 N.am      1 <0>        -0.7085
     23 C13        -8.8801    1.6166   -5.1085 C.3       1 <0>         0.1259
     24 C14        -9.4374    0.2693   -4.6448 C.3       1 <0>         0.0618
     25 H1         -8.6279   -0.3827   -4.3166 H         1 <0>         0.0773
     26 C15       -10.2403   -0.4007   -5.7819 C.3       1 <0>        -0.1478
     27 C16       -11.4223   -1.0814   -5.0562 C.3       1 <0>        -0.1556
     28 C17       -11.1939   -0.7422   -3.5665 C.3       1 <0>         0.0440
     29 O6        -10.3947    0.4607   -3.5804 O.3       1 <0>        -0.3674
     30 C18        -3.6715    1.7225   -0.0547 C.3       1 <0>         0.0750
     31 C19        -3.9048    1.2040    1.3658 C.3       1 <0>         0.0507
     32 H2         -3.1979    1.6625    2.0572 H         1 <0>         0.0775
     33 C20        -3.7741   -0.3348    1.4047 C.3       1 <0>        -0.1540
     34 C21        -4.8595   -0.7784    2.4109 C.3       1 <0>        -0.1536
     35 C22        -5.5176    0.5448    2.8608 C.3       1 <0>         0.0441
     36 O7         -5.2622    1.4697    1.7813 O.3       1 <0>        -0.3623
     37 H3          0.2701    0.2113    0.3071 H         1 <0>         0.1704
     38 H4         -1.8424    1.3993    0.7227 H         1 <0>         0.1764
     39 H5          1.7103    3.5209   -1.9672 H         1 <0>         0.1736
     40 H6         -5.6660    3.3141    0.6191 H         1 <0>         0.1446
     41 H7         -4.7891    4.8619    0.5593 H         1 <0>         0.1206
     42 H8         -5.8915    5.8217   -4.0626 H         1 <0>         0.2317
     43 H9         -7.8938    1.6940   -3.2298 H         1 <0>         0.4126
     44 H10        -9.7044    2.3005   -5.3108 H         1 <0>         0.0811
     45 H11        -8.2947    1.4744   -6.0169 H         1 <0>         0.0857
     46 H12       -10.6042    0.3484   -6.4851 H         1 <0>         0.0816
     47 H13        -9.6280   -1.1410   -6.2967 H         1 <0>         0.0822
     48 H14       -12.3706   -0.6690   -5.4007 H         1 <0>         0.0779
     49 H15       -11.3966   -2.1598   -5.2128 H         1 <0>         0.0792
     50 H16       -12.1461   -0.5595   -3.0686 H         1 <0>         0.0938
     51 H17       -10.6566   -1.5511   -3.0713 H         1 <0>         0.0613
     52 H18        -4.4625    1.3570   -0.7094 H         1 <0>         0.1024
     53 H19        -2.7067    1.3675   -0.4171 H         1 <0>         0.1193
     54 H20        -3.9694   -0.7597    0.4202 H         1 <0>         0.0837
     55 H21        -2.7846   -0.6252    1.7577 H         1 <0>         0.0831
     56 H22        -5.5915   -1.4227    1.9238 H         1 <0>         0.0793
     57 H23        -4.4068   -1.2903    3.2601 H         1 <0>         0.0803
     58 H24        -6.5903    0.4079    2.9974 H         1 <0>         0.0963
     59 H25        -5.0607    0.9011    3.7841 H         1 <0>         0.0624
@<TRIPOS>BOND
     1    1    6 ar
     2    1    2 ar
     3    1   37 1
     4    2    3 ar
     5    2   38 1
     6    3    4 ar
     7    3   11 1
     8    4    5 ar
     9    4   10 1
    10    5    6 ar
    11    5   39 1
    12    6    7 1
    13    7    8 2
    14    7    9 1
    15   11   12 2
    16   11   13 am
    17   13   14 1
    18   13   30 1
    19   14   15 1
    20   14   40 1
    21   14   41 1
    22   15   19 1
    23   15   16 2
    24   16   17 1
    25   17   18 2
    26   17   20 1
    27   18   19 1
    28   18   42 1
    29   20   21 2
    30   20   22 am
    31   22   23 1
    32   22   43 1
    33   23   24 1
    34   23   44 1
    35   23   45 1
    36   24   25 1
    37   24   29 1
    38   24   26 1
    39   26   27 1
    40   26   46 1
    41   26   47 1
    42   27   28 1
    43   27   48 1
    44   27   49 1
    45   28   29 1
    46   28   50 1
    47   28   51 1
    48   30   31 1
    49   30   52 1
    50   30   53 1
    51   31   32 1
    52   31   36 1
    53   31   33 1
    54   33   34 1
    55   33   54 1
    56   33   55 1
    57   34   35 1
    58   34   56 1
    59   34   57 1
    60   35   36 1
    61   35   58 1
    62   35   59 1
@<TRIPOS>MOLECULE
ZINC32594258
   60    62     0     0     0
SMALL
USER_CHARGES
[(2R,3S,4R,5R,6R)-5-acetamido-3,4-diacetoxy-6-(5-phenyl-2-thioxo-1,3,4-oxadiazol-3-yl)tetrahydropyran-2-yl]methyl acetate
@<TRIPOS>ATOM
      1 C1         -3.7454   -4.3692    2.4061 C.3       1 <0>        -0.1693
      2 C2         -2.4905   -3.8369    1.7635 C.2       1 <0>         0.5189
      3 O1         -1.5022   -4.5363    1.6923 O.2       1 <0>        -0.5431
      4 N1         -2.4664   -2.5838    1.2681 N.am      1 <0>        -0.7296
      5 C3         -1.2465   -2.0663    0.6435 C.3       1 <0>         0.1243
      6 H1         -0.3973   -2.4929    1.1974 H         1 <0>         0.1293
      7 C4         -1.2382   -0.5368    0.7260 C.3       1 <0>         0.0958
      8 H2         -2.1592   -0.1115    0.3007 H         1 <0>         0.1207
      9 C5          0.0021   -0.0041    0.0020 C.3       1 <0>         0.0480
     10 H3          0.9237   -0.3063    0.5211 H         1 <0>         0.1210
     11 C6         -0.0048   -0.5079   -1.4436 C.3       1 <0>         0.0922
     12 H4         -0.9096   -0.1809   -1.9769 H         1 <0>         0.1016
     13 O2         -0.0438   -1.9363   -1.4487 O.3       1 <0>        -0.3572
     14 C7         -1.2051   -2.4905   -0.8269 C.3       1 <0>         0.3400
     15 H5         -2.0760   -2.1309   -1.3946 H         1 <0>         0.1361
     16 N2         -1.1547   -3.9521   -0.9126 N.pl3     1 <0>        -0.3668
     17 C8         -2.1685   -4.7729   -1.2601 C.2       1 <0>         0.4321
     18 S1         -3.7576   -4.2967   -1.6831 S.2       1 <0>        -0.4669
     19 O3         -1.7019   -6.0326   -1.2123 O.3       1 <0>        -0.2034
     20 C9         -0.4044   -6.0034   -0.8375 C.2       1 <0>         0.2999
     21 N3         -0.0420   -4.7665   -0.6551 N.2       1 <0>        -0.2310
     22 C10         0.4669   -7.1865   -0.6687 C.ar      1 <0>        -0.0417
     23 C11         1.7981   -7.0269   -0.2818 C.ar      1 <0>        -0.0590
     24 C12         2.6044   -8.1349   -0.1219 C.ar      1 <0>        -0.1210
     25 C13         2.0984   -9.4016   -0.3535 C.ar      1 <0>        -0.0839
     26 C14         0.7809   -9.5663   -0.7423 C.ar      1 <0>        -0.1204
     27 C15        -0.0372   -8.4667   -0.9011 C.ar      1 <0>        -0.0714
     28 C16         1.2615   -0.0293   -2.1567 C.3       1 <0>         0.0811
     29 O4          1.1995   -0.4057   -3.5577 O.3       1 <0>        -0.3510
     30 C17         2.2414   -0.0572   -4.3290 C.2       1 <0>         0.4596
     31 O5          3.1743    0.5424   -3.8493 O.2       1 <0>        -0.5070
     32 C18         2.2477   -0.4139   -5.7931 C.3       1 <0>        -0.1501
     33 O6         -0.0176    1.4478    0.0100 O.3       1 <0>        -0.3344
     34 C19         1.1699    2.0734    0.0020 C.2       1 <0>         0.4532
     35 O7          2.1921    1.4292   -0.0112 O.2       1 <0>        -0.4963
     36 C20         1.2284    3.5792    0.0096 C.3       1 <0>        -0.1503
     37 O8         -1.2020   -0.1257    2.1181 O.3       1 <0>        -0.3419
     38 C21        -1.7799    1.0470    2.4224 C.2       1 <0>         0.4567
     39 O9         -2.2987    1.7081    1.5543 O.2       1 <0>        -0.4874
     40 C22        -1.7815    1.5391    3.8468 C.3       1 <0>        -0.1505
     41 H6         -4.5280   -3.5967    2.3775 H         1 <0>         0.0811
     42 H7         -3.5356   -4.6401    3.4514 H         1 <0>         0.0978
     43 H8         -4.0886   -5.2593    1.8585 H         1 <0>         0.0989
     44 H9         -3.3628   -1.9496    1.3328 H         1 <0>         0.4317
     45 H10         2.1953   -6.0383   -0.1044 H         1 <0>         0.1384
     46 H11         3.6338   -8.0130    0.1811 H         1 <0>         0.1373
     47 H12         2.7347  -10.2655   -0.2305 H         1 <0>         0.1340
     48 H13         0.3921  -10.5577   -0.9222 H         1 <0>         0.1372
     49 H14        -1.0656   -8.5966   -1.2043 H         1 <0>         0.1365
     50 H15         1.3375    1.0649   -2.0740 H         1 <0>         0.0902
     51 H16         2.1427   -0.4943   -1.6907 H         1 <0>         0.0964
     52 H17         3.1763   -0.0480   -6.2556 H         1 <0>         0.1055
     53 H18         1.3831    0.0526   -6.2878 H         1 <0>         0.1030
     54 H19         2.1884   -1.5066   -5.9045 H         1 <0>         0.1026
     55 H20         2.2789    3.9054    0.0013 H         1 <0>         0.1090
     56 H21         0.7331    3.9608    0.9146 H         1 <0>         0.1047
     57 H22         0.7159    3.9705   -0.8816 H         1 <0>         0.1057
     58 H23        -2.2968    2.5095    3.8989 H         1 <0>         0.1078
     59 H24        -0.7448    1.6553    4.1957 H         1 <0>         0.1014
     60 H25        -2.3040    0.8117    4.4854 H         1 <0>         0.1034
@<TRIPOS>BOND
     1    1    2 1
     2    1   41 1
     3    1   42 1
     4    1   43 1
     5    2    3 2
     6    2    4 am
     7    4    5 1
     8    4   44 1
     9    5    6 1
    10    5   14 1
    11    5    7 1
    12    7    8 1
    13    7    9 1
    14    7   37 1
    15    9   10 1
    16    9   11 1
    17    9   33 1
    18   11   12 1
    19   11   13 1
    20   11   28 1
    21   13   14 1
    22   14   15 1
    23   14   16 1
    24   16   21 1
    25   16   17 1
    26   17   18 2
    27   17   19 1
    28   19   20 1
    29   20   21 2
    30   20   22 1
    31   22   27 ar
    32   22   23 ar
    33   23   24 ar
    34   23   45 1
    35   24   25 ar
    36   24   46 1
    37   25   26 ar
    38   25   47 1
    39   26   27 ar
    40   26   48 1
    41   27   49 1
    42   28   29 1
    43   28   50 1
    44   28   51 1
    45   29   30 1
    46   30   31 2
    47   30   32 1
    48   32   52 1
    49   32   53 1
    50   32   54 1
    51   33   34 1
    52   34   35 2
    53   34   36 1
    54   36   55 1
    55   36   56 1
    56   36   57 1
    57   37   38 1
    58   38   39 2
    59   38   40 1
    60   40   58 1
    61   40   59 1
    62   40   60 1
@<TRIPOS>MOLECULE
ZINC38488236
   56    60     0     0     0
SMALL
USER_CHARGES

@<TRIPOS>ATOM
      1 C1         -0.0165    1.3620    0.0095 C.ar      1 <0>        -0.1472
      2 C2          1.1695    2.0829    0.0021 C.ar      1 <0>        -0.0592
      3 C3          2.3849    1.4337   -0.0130 C.ar      1 <0>        -0.1239
      4 C4          2.4258    0.0445   -0.0209 C.ar      1 <0>         0.0859
      5 C5          1.2235   -0.6815   -0.0133 C.ar      1 <0>        -0.1870
      6 C6          0.0021   -0.0041    0.0020 C.ar      1 <0>        -0.0393
      7 C7          1.5960   -2.0991   -0.0245 C.2       1 <0>         0.1467
      8 N1          2.8919   -2.1600   -0.0372 N.2       1 <0>        -0.2717
      9 O1          3.4313   -0.8535   -0.0353 O.3       1 <0>        -0.0855
     10 C8          0.6479   -3.2705   -0.0218 C.3       1 <0>        -0.0739
     11 C9          0.3183   -3.6533   -1.4416 C.2       1 <0>         0.5255
     12 O2          0.8053   -3.0357   -2.3648 O.2       1 <0>        -0.5171
     13 N2         -0.5177   -4.6819   -1.6855 N.am      1 <0>        -0.6132
     14 C10        -1.1200   -5.4353   -0.5767 C.3       1 <0>         0.0877
     15 C11        -2.6446   -5.4179   -0.7434 C.3       1 <0>         0.1132
     16 N3         -2.9706   -5.8059   -2.1229 N.pl3     1 <0>        -0.5607
     17 C12        -2.3683   -5.0525   -3.2317 C.3       1 <0>         0.1113
     18 C13        -0.8481   -5.0664   -3.0649 C.3       1 <0>         0.0976
     19 C14        -3.8327   -6.8668   -2.3744 C.2       1 <0>         0.3530
     20 N4         -4.4668   -7.6482   -1.5223 N.2       1 <0>        -0.3744
     21 N5         -5.2832   -8.6517   -1.9904 N.2       1 <0>        -0.2762
     22 C15        -5.4278   -8.8275   -3.2898 C.2       1 <0>         0.0236
     23 S1         -4.3841   -7.5309   -3.9382 S.3       1 <0>         0.0031
     24 S2         -6.3963  -10.0187   -4.1544 S.3       1 <0>         0.1277
     25 C16        -7.1812  -10.9866   -2.8362 C.3       1 <0>        -0.1593
     26 C17        -8.0502  -12.0556   -3.4471 C.2       1 <0>         0.5394
     27 O3         -8.1319  -12.1547   -4.6531 O.2       1 <0>        -0.5182
     28 N6         -8.7364  -12.9014   -2.6533 N.am      1 <0>        -0.7208
     29 C18        -9.5812  -13.9406   -3.2473 C.3       1 <0>         0.2050
     30 C19       -10.2332  -14.7446   -2.1521 C.2       1 <0>        -0.0465
     31 C20       -11.4229  -14.4794   -1.5833 C.2       1 <0>        -0.1776
     32 C21       -11.6441  -15.4811   -0.6103 C.2       1 <0>        -0.2186
     33 C22       -10.5763  -16.2984   -0.6427 C.2       1 <0>        -0.0235
     34 O4         -9.7276  -15.8508   -1.5825 O.3       1 <0>        -0.1711
     35 H1         -0.9613    1.8850    0.0259 H         1 <0>         0.1361
     36 H2          1.1395    3.1624    0.0078 H         1 <0>         0.1420
     37 H3          3.3029    2.0027   -0.0191 H         1 <0>         0.1411
     38 H4         -0.9248   -0.5584    0.0083 H         1 <0>         0.1306
     39 H5          1.1159   -4.1156    0.4830 H         1 <0>         0.1262
     40 H6         -0.2675   -2.9958    0.5023 H         1 <0>         0.1277
     41 H7         -0.7616   -6.4645   -0.5964 H         1 <0>         0.0854
     42 H8         -0.8503   -4.9695    0.3712 H         1 <0>         0.1054
     43 H9         -3.0967   -6.1250   -0.0479 H         1 <0>         0.1119
     44 H10        -3.0226   -4.4147   -0.5465 H         1 <0>         0.0834
     45 H11        -2.6379   -5.5183   -4.1795 H         1 <0>         0.0964
     46 H12        -2.7267   -4.0233   -3.2120 H         1 <0>         0.0891
     47 H13        -0.3989   -4.3570   -3.7600 H         1 <0>         0.1147
     48 H14        -0.4699   -6.0687   -3.2659 H         1 <0>         0.0805
     49 H15        -6.4120  -11.4519   -2.2198 H         1 <0>         0.1295
     50 H16        -7.7936  -10.3296   -2.2185 H         1 <0>         0.1297
     51 H17        -8.6710  -12.8221   -1.6888 H         1 <0>         0.4085
     52 H18       -10.3504  -13.4752   -3.8636 H         1 <0>         0.1046
     53 H19        -8.9688  -14.5975   -3.8650 H         1 <0>         0.0906
     54 H20       -12.0824  -13.6585   -1.8233 H         1 <0>         0.1522
     55 H21       -12.5051  -15.5722    0.0354 H         1 <0>         0.1525
     56 H22       -10.4284  -17.1693   -0.0213 H         1 <0>         0.2068
@<TRIPOS>BOND
     1    1    6 ar
     2    1    2 ar
     3    1   35 1
     4    2    3 ar
     5    2   36 1
     6    3    4 ar
     7    3   37 1
     8    4    9 1
     9    4    5 ar
    10    5    6 ar
    11    5    7 1
    12    6   38 1
    13    7    8 2
    14    7   10 1
    15    8    9 1
    16   10   11 1
    17   10   39 1
    18   10   40 1
    19   11   12 2
    20   11   13 am
    21   13   18 1
    22   13   14 1
    23   14   15 1
    24   14   41 1
    25   14   42 1
    26   15   16 1
    27   15   43 1
    28   15   44 1
    29   16   17 1
    30   16   19 1
    31   17   18 1
    32   17   45 1
    33   17   46 1
    34   18   47 1
    35   18   48 1
    36   19   23 1
    37   19   20 2
    38   20   21 1
    39   21   22 2
    40   22   23 1
    41   22   24 1
    42   24   25 1
    43   25   26 1
    44   25   49 1
    45   25   50 1
    46   26   27 2
    47   26   28 am
    48   28   29 1
    49   28   51 1
    50   29   30 1
    51   29   52 1
    52   29   53 1
    53   30   34 1
    54   30   31 2
    55   31   32 1
    56   31   54 1
    57   32   33 2
    58   32   55 1
    59   33   34 1
    60   33   56 1
@<TRIPOS>MOLECULE
ZINC25720991
   65    66     0     0     0
SMALL
USER_CHARGES

@<TRIPOS>ATOM
      1 C1          1.1731   -3.1653   -3.5860 C.3       1 <0>        -0.1593
      2 C2          1.7827   -1.9419   -2.8986 C.3       1 <0>        -0.1350
      3 C3          0.6672   -1.0915   -2.2876 C.3       1 <0>         0.1243
      4 H1          0.0576   -1.7105   -1.6293 H         1 <0>         0.0997
      5 C4          1.2825    0.0557   -1.4838 C.3       1 <0>        -0.1658
      6 N1         -0.1709   -0.5439   -3.3572 N.am      1 <0>        -0.5987
      7 C5          0.4278    0.2890   -4.4032 C.3       1 <0>         0.1575
      8 H2          1.4995    0.3781   -4.2255 H         1 <0>         0.1115
      9 C6          0.1902   -0.3646   -5.7746 C.3       1 <0>        -0.1521
     10 C7          0.5489    0.6745   -6.8750 C.3       1 <0>        -0.5706
     11 S1         -0.1618    2.2059   -6.1370 S.o2      1 <0>         2.3711
     12 O1          0.7726    3.2664   -6.2837 O.2       1 <0>        -0.9442
     13 O2         -1.4906    2.3742   -6.6114 O.2       1 <0>        -0.9209
     14 C8         -0.2169    1.6957   -4.3717 C.3       1 <0>        -0.5991
     15 C9         -1.4927   -0.8063   -3.3788 C.2       1 <0>         0.5199
     16 O3         -2.2021   -0.2790   -4.2093 O.2       1 <0>        -0.4959
     17 C10        -2.0892   -1.7549   -2.3712 C.3       1 <0>         0.0479
     18 O4         -3.4784   -1.9368   -2.6524 O.3       1 <0>        -0.3309
     19 C11        -4.1619   -2.7590   -1.8409 C.2       1 <0>         0.4595
     20 O5         -3.5993   -3.3062   -0.9222 O.2       1 <0>        -0.5025
     21 C12        -5.6309   -2.9997   -2.0756 C.3       1 <0>         0.1156
     22 H3         -5.7489   -3.4279   -3.0711 H         1 <0>         0.0706
     23 C13        -6.3415   -1.6585   -2.0489 C.2       1 <0>        -0.3892
     24 C14        -7.3517   -1.4920   -1.1147 C.2       1 <0>         0.2551
     25 N2         -7.6936   -2.4500   -0.2756 N.2       1 <0>        -0.6451
     26 C15        -7.1419   -3.6462   -0.2165 C.2       1 <0>         0.3108
     27 C16        -6.1125   -4.0203   -1.0601 C.2       1 <0>        -0.3846
     28 C17        -5.5423   -5.2858   -0.9806 C.2       1 <0>         0.4968
     29 O6         -5.9859   -6.1609   -0.0790 O.3       1 <0>        -0.6345
     30 O7         -4.5406   -5.6276   -1.8158 O.3       1 <0>        -0.3399
     31 C18        -4.0018   -6.9439   -1.6782 C.3       1 <0>         0.0462
     32 C19        -7.6472   -4.6336    0.8037 C.3       1 <0>        -0.0885
     33 C20        -8.0818   -0.1750   -1.0559 C.3       1 <0>        -0.1108
     34 C21        -5.9926   -0.6378   -2.9261 C.2       1 <0>         0.5494
     35 O8         -6.3533   -0.7078   -4.2070 O.2       1 <0>        -0.5774
     36 O9         -5.2893    0.4228   -2.4808 O.3       1 <0>        -0.3247
     37 C22        -4.9654    1.4342   -3.4369 C.3       1 <0>         0.0310
     38 H4          0.6243   -3.7576   -2.8539 H         1 <0>         0.0582
     39 H5          0.4929   -2.8388   -4.3726 H         1 <0>         0.0572
     40 H6          1.9678   -3.7711   -4.0213 H         1 <0>         0.0580
     41 H7          2.4630   -2.2684   -2.1120 H         1 <0>         0.0791
     42 H8          2.3315   -1.3496   -3.6308 H         1 <0>         0.0684
     43 H9          1.8259    0.7198   -2.1559 H         1 <0>         0.0615
     44 H10         0.4913    0.6136   -0.9829 H         1 <0>         0.0640
     45 H11         1.9686   -0.3491   -0.7398 H         1 <0>         0.0724
     46 H12         0.8254   -1.2444   -5.8781 H         1 <0>         0.1017
     47 H13        -0.8566   -0.6536   -5.8683 H         1 <0>         0.1099
     48 H14         1.6283    0.7609   -6.9989 H         1 <0>         0.1373
     49 H15         0.0640    0.4308   -7.8203 H         1 <0>         0.1433
     50 H16        -1.2461    1.6414   -4.0169 H         1 <0>         0.1575
     51 H17         0.3702    2.3763   -3.7550 H         1 <0>         0.1409
     52 H18        -1.5778   -2.7157   -2.4296 H         1 <0>         0.0909
     53 H19        -1.9724   -1.3414   -1.3694 H         1 <0>         0.0911
     54 H20        -4.7890   -7.6784   -1.8490 H         1 <0>         0.0508
     55 H21        -3.2053   -7.0887   -2.4081 H         1 <0>         0.0811
     56 H22        -3.6003   -7.0689   -0.6726 H         1 <0>         0.0512
     57 H23        -8.4513   -4.1788    1.3823 H         1 <0>         0.0489
     58 H24        -8.0227   -5.5215    0.2951 H         1 <0>         0.0799
     59 H25        -6.8330   -4.9146    1.4717 H         1 <0>         0.0800
     60 H26        -8.9815   -0.2307   -1.6686 H         1 <0>         0.0722
     61 H27        -8.3578    0.0415   -0.0239 H         1 <0>         0.0744
     62 H28        -7.4341    0.6166   -1.4325 H         1 <0>         0.0629
     63 H29        -5.8838    1.8464   -3.8551 H         1 <0>         0.0522
     64 H30        -4.4002    2.2281   -2.9487 H         1 <0>         0.0839
     65 H31        -4.3653    0.9997   -4.2364 H         1 <0>         0.0740
@<TRIPOS>BOND
     1    1    2 1
     2    1   38 1
     3    1   39 1
     4    1   40 1
     5    2    3 1
     6    2   41 1
     7    2   42 1
     8    3    4 1
     9    3    5 1
    10    3    6 1
    11    5   43 1
    12    5   44 1
    13    5   45 1
    14    6    7 1
    15    6   15 am
    16    7    8 1
    17    7   14 1
    18    7    9 1
    19    9   10 1
    20    9   46 1
    21    9   47 1
    22   10   11 1
    23   10   48 1
    24   10   49 1
    25   11   12 2
    26   11   13 2
    27   11   14 1
    28   14   50 1
    29   14   51 1
    30   15   16 2
    31   15   17 1
    32   17   18 1
    33   17   52 1
    34   17   53 1
    35   18   19 1
    36   19   20 2
    37   19   21 1
    38   21   22 1
    39   21   27 1
    40   21   23 1
    41   23   24 2
    42   23   34 1
    43   24   25 1
    44   24   33 1
    45   25   26 2
    46   26   27 1
    47   26   32 1
    48   27   28 2
    49   28   29 1
    50   28   30 1
    51   30   31 1
    52   31   54 1
    53   31   55 1
    54   31   56 1
    55   32   57 1
    56   32   58 1
    57   32   59 1
    58   33   60 1
    59   33   61 1
    60   33   62 1
    61   34   35 2
    62   34   36 1
    63   36   37 1
    64   37   63 1
    65   37   64 1
    66   37   65 1
@<TRIPOS>MOLECULE
ZINC13302026
   50    52     0     0     0
SMALL
USER_CHARGES
5-[[4-[[(3R)-3-methoxycarbonyl-1-piperidyl]sulfonyl]phenyl]sulfamoyl]thiophene-3-carboxylic acid
@<TRIPOS>ATOM
      1 C1          2.3218   -4.4755    2.5675 C.3       1 <0>         0.0344
      2 O1          1.1726   -3.6207    2.3285 O.3       1 <0>        -0.3566
      3 C2          1.3251   -2.6303    1.4355 C.2       1 <0>         0.4682
      4 O2          2.3837   -2.4823    0.8722 O.2       1 <0>        -0.5017
      5 C3          0.1759   -1.7027    1.1355 C.3       1 <0>        -0.0987
      6 H1         -0.1246   -1.1886    2.0484 H         1 <0>         0.1176
      7 C4         -1.0046   -2.5111    0.5923 C.3       1 <0>        -0.1085
      8 C5         -2.1837   -1.5746    0.3190 C.3       1 <0>        -0.1348
      9 C6         -1.7770   -0.5431   -0.7381 C.3       1 <0>         0.1140
     10 N1         -0.5562    0.1393   -0.2878 N.pl3     1 <0>        -0.9964
     11 C7          0.6112   -0.6725    0.0823 C.3       1 <0>         0.1367
     12 S1         -0.4949    1.7921   -0.2056 S.o2      1 <0>         2.6893
     13 O3          0.8765    2.1527   -0.2984 O.2       1 <0>        -0.9481
     14 O4         -1.4740    2.2804   -1.1122 O.2       1 <0>        -0.9462
     15 C8         -1.0288    2.2535    1.4089 C.ar      1 <0>        -0.6760
     16 C9         -2.3681    2.5011    1.6481 C.ar      1 <0>        -0.0100
     17 C10        -2.7908    2.8575    2.9136 C.ar      1 <0>        -0.1276
     18 C11        -1.8673    2.9782    3.9443 C.ar      1 <0>         0.1873
     19 C12        -0.5219    2.7343    3.6992 C.ar      1 <0>        -0.1245
     20 C13        -0.1068    2.3728    2.4326 C.ar      1 <0>        -0.0133
     21 N2         -2.2907    3.3435    5.2242 N.pl3     1 <0>        -1.0703
     22 S2         -2.0100    4.8770    5.7829 S.o2      1 <0>         2.7303
     23 O5         -2.5919    4.9505    7.0772 O.2       1 <0>        -0.9432
     24 O6         -0.6350    5.1490    5.5492 O.2       1 <0>        -0.9424
     25 C14        -2.9231    5.9806    4.7568 C.2       1 <0>        -0.8062
     26 C15        -4.1563    6.4842    4.9578 C.2       1 <0>         0.0545
     27 C16        -4.6719    7.3786    3.9512 C.2       1 <0>        -0.1948
     28 C17        -3.8611    7.6323    2.8633 C.2       1 <0>        -0.1074
     29 S3         -2.4436    6.6957    3.1977 S.3       1 <0>         0.1642
     30 C18        -6.0042    7.9880    4.0749 C.2       1 <0>         0.5052
     31 O7         -6.6960    7.7453    5.0446 O.co2     1 <0>        -0.6273
     32 H2          3.1519   -3.8733    2.9368 H         1 <0>         0.0645
     33 H3          2.0640   -5.2322    3.3084 H         1 <0>         0.1023
     34 H4          2.6123   -4.9625    1.6366 H         1 <0>         0.0636
     35 H5         -1.2993   -3.2613    1.3262 H         1 <0>         0.0818
     36 H6         -0.7110   -3.0051   -0.3339 H         1 <0>         0.0727
     37 H7         -2.4620   -1.0617    1.2396 H         1 <0>         0.0750
     38 H8         -3.0321   -2.1538   -0.0455 H         1 <0>         0.0858
     39 H9         -2.5775    0.1858   -0.8645 H         1 <0>         0.0975
     40 H10        -1.5864   -1.0447   -1.6868 H         1 <0>         0.0798
     41 H11         0.9933   -1.1866   -0.7997 H         1 <0>         0.0897
     42 H12         1.3870   -0.0290    0.4974 H         1 <0>         0.1025
     43 H13        -3.0850    2.4117    0.8452 H         1 <0>         0.1468
     44 H14        -3.8376    3.0465    3.1008 H         1 <0>         0.1433
     45 H15         0.1986    2.8269    4.4984 H         1 <0>         0.1463
     46 H16         0.9390    2.1826    2.2415 H         1 <0>         0.1460
     47 H17        -2.7491    2.6991    5.7858 H         1 <0>         0.4303
     48 H18        -4.7322    6.2317    5.8358 H         1 <0>         0.1549
     49 H19        -4.0621    8.2629    2.0099 H         1 <0>         0.1993
     50 O8         -6.4587    8.8157    3.1130 O.co2     1 <0>        -0.7498
@<TRIPOS>BOND
     1    1    2 1
     2    1   32 1
     3    1   33 1
     4    1   34 1
     5    2    3 1
     6    3    4 2
     7    3    5 1
     8    5    6 1
     9    5   11 1
    10    5    7 1
    11    7    8 1
    12    7   35 1
    13    7   36 1
    14    8    9 1
    15    8   37 1
    16    8   38 1
    17    9   10 1
    18    9   39 1
    19    9   40 1
    20   10   11 1
    21   10   12 1
    22   11   41 1
    23   11   42 1
    24   12   13 2
    25   12   14 2
    26   12   15 1
    27   15   20 ar
    28   15   16 ar
    29   16   17 ar
    30   16   43 1
    31   17   18 ar
    32   17   44 1
    33   18   19 ar
    34   18   21 1
    35   19   20 ar
    36   19   45 1
    37   20   46 1
    38   21   22 1
    39   21   47 1
    40   22   23 2
    41   22   24 2
    42   22   25 1
    43   25   29 1
    44   25   26 2
    45   26   27 1
    46   26   48 1
    47   27   28 2
    48   27   30 1
    49   28   29 1
    50   28   49 1
    51   30   31 2
    52   30   50 1
@<TRIPOS>MOLECULE
ZINC09046657
   65    68     0     0     0
SMALL
USER_CHARGES
(5S)-4-(4-allyloxybenzoyl)-3-hydroxy-1-(3-morpholinopropyl)-5-(4-nitrophenyl)-5H-pyrrol-2-one
@<TRIPOS>ATOM
      1 C1         -7.3133   -5.7017   -0.4169 C.2       1 <0>        -0.1764
      2 C2         -6.8513   -4.5943   -0.9426 C.2       1 <0>        -0.1583
      3 C3         -5.3793   -4.2806   -0.8658 C.3       1 <0>         0.0838
      4 O1         -4.9240   -3.8170   -2.1385 O.3       1 <0>        -0.3114
      5 C4         -3.6113   -3.4889   -2.2411 C.ar      1 <0>         0.1429
      6 C5         -3.1038   -3.0308   -3.4519 C.ar      1 <0>        -0.1661
      7 C6         -1.7725   -2.6977   -3.5605 C.ar      1 <0>        -0.0337
      8 C7         -0.9305   -2.8201   -2.4510 C.ar      1 <0>        -0.1767
      9 C8         -1.4438   -3.2862   -1.2367 C.ar      1 <0>        -0.0244
     10 C9         -2.7774   -3.6121   -1.1352 C.ar      1 <0>        -0.2255
     11 C10         0.4977   -2.4641   -2.5628 C.2       1 <0>         0.5038
     12 O2          0.9666   -2.1620   -3.6445 O.2       1 <0>        -0.4746
     13 C11         1.3514   -2.4744   -1.3706 C.2       1 <0>        -0.5065
     14 C12         2.4105   -3.2856   -1.1434 C.2       1 <0>         0.2707
     15 C13         2.9918   -2.9666    0.1775 C.2       1 <0>         0.5123
     16 O3          3.9544   -3.5223    0.6682 O.2       1 <0>        -0.5248
     17 N1          2.2968   -1.9695    0.7574 N.am      1 <0>        -0.6144
     18 C14         1.2188   -1.5807   -0.1596 C.3       1 <0>         0.2608
     19 H1          0.2438   -1.6958    0.3364 H         1 <0>         0.0763
     20 C15         1.3759   -0.1368   -0.5614 C.ar      1 <0>        -0.0185
     21 C16         0.2629    0.6762   -0.6670 C.ar      1 <0>        -0.1165
     22 C17         0.4070    2.0009   -1.0347 C.ar      1 <0>        -0.0529
     23 C18         1.6641    2.5126   -1.2968 C.ar      1 <0>        -0.0569
     24 C19         2.7770    1.6992   -1.1926 C.ar      1 <0>        -0.0528
     25 C20         2.6329    0.3748   -0.8240 C.ar      1 <0>        -0.0933
     26 N2          1.8184    3.9310   -1.6910 N.pl3     1 <0>         0.0350
     27 O4          0.8378    4.6473   -1.7844 O.2       1 <0>        -0.1711
     28 O5          2.9261    4.3819   -1.9219 O.3       1 <0>        -0.1698
     29 C21         2.5683   -1.3767    2.0693 C.3       1 <0>         0.1354
     30 C22         1.7887   -2.1373    3.1438 C.3       1 <0>        -0.1338
     31 C23         2.0723   -1.5183    4.5139 C.3       1 <0>         0.0589
     32 N3          1.3237   -2.2485    5.5456 N.3       1 <0>        -0.5352
     33 C24        -0.1247   -2.0610    5.3775 C.3       1 <0>         0.0134
     34 C25        -0.8664   -2.8847    6.4336 C.3       1 <0>         0.0615
     35 O6         -0.4177   -2.4969    7.7350 O.3       1 <0>        -0.3874
     36 C26         0.9883   -2.6669    7.9336 C.3       1 <0>         0.0620
     37 C27         1.7488   -1.8411    6.8927 C.3       1 <0>         0.0166
     38 O7          2.8652   -4.2372   -1.9909 O.3       1 <0>        -0.6419
     39 H2         -8.3877   -5.9307   -0.4729 H         1 <0>         0.1094
     40 H3         -6.6268   -6.4026    0.0806 H         1 <0>         0.1024
     41 H4         -7.5378   -3.8934   -1.4401 H         1 <0>         0.1216
     42 H5         -5.2097   -3.5003   -0.1092 H         1 <0>         0.0737
     43 H6         -4.8249   -5.1887   -0.5866 H         1 <0>         0.0696
     44 H7         -3.7548   -2.9366   -4.3084 H         1 <0>         0.1307
     45 H8         -1.3791   -2.3420   -4.5013 H         1 <0>         0.1365
     46 H9         -0.7957   -3.3867   -0.3786 H         1 <0>         0.1364
     47 H10        -3.1755   -3.9685   -0.1967 H         1 <0>         0.1275
     48 H11        -0.7192    0.2765   -0.4619 H         1 <0>         0.1448
     49 H12        -0.4629    2.6350   -1.1216 H         1 <0>         0.1494
     50 H13         3.7591    2.0990   -1.3974 H         1 <0>         0.1494
     51 H14         3.5025   -0.2603   -0.7408 H         1 <0>         0.1422
     52 H15         3.6453   -1.4394    2.2842 H         1 <0>         0.0824
     53 H16         2.2557   -0.3221    2.0669 H         1 <0>         0.0723
     54 H17         0.7117   -2.0745    2.9289 H         1 <0>         0.0660
     55 H18         2.1012   -3.1920    3.1461 H         1 <0>         0.0799
     56 H19         3.1493   -1.5811    4.7288 H         1 <0>         0.0793
     57 H20         1.7598   -0.4636    4.5116 H         1 <0>         0.0358
     58 H21        -0.3731   -0.9963    5.4990 H         1 <0>         0.0419
     59 H22        -0.4235   -2.3949    4.3729 H         1 <0>         0.0915
     60 H23        -1.9479   -2.7031    6.3473 H         1 <0>         0.0983
     61 H24        -0.6604   -3.9537    6.2761 H         1 <0>         0.0610
     62 H25         1.2597   -2.3267    8.9439 H         1 <0>         0.0978
     63 H26         1.2484   -3.7299    7.8225 H         1 <0>         0.0607
     64 H27         2.8296   -2.0131    7.0038 H         1 <0>         0.0873
     65 H28         1.5306   -0.7729    7.0387 H         1 <0>         0.0418
@<TRIPOS>BOND
     1    1    2 2
     2    1   39 1
     3    1   40 1
     4    2    3 1
     5    2   41 1
     6    3    4 1
     7    3   42 1
     8    3   43 1
     9    4    5 1
    10    5   10 ar
    11    5    6 ar
    12    6    7 ar
    13    6   44 1
    14    7    8 ar
    15    7   45 1
    16    8    9 ar
    17    8   11 1
    18    9   10 ar
    19    9   46 1
    20   10   47 1
    21   11   12 2
    22   11   13 1
    23   13   18 1
    24   13   14 2
    25   14   15 1
    26   14   38 1
    27   15   16 2
    28   15   17 am
    29   17   18 1
    30   17   29 1
    31   18   19 1
    32   18   20 1
    33   20   25 ar
    34   20   21 ar
    35   21   22 ar
    36   21   48 1
    37   22   23 ar
    38   22   49 1
    39   23   24 ar
    40   23   26 1
    41   24   25 ar
    42   24   50 1
    43   25   51 1
    44   26   27 2
    45   26   28 1
    46   29   30 1
    47   29   52 1
    48   29   53 1
    49   30   31 1
    50   30   54 1
    51   30   55 1
    52   31   32 1
    53   31   56 1
    54   31   57 1
    55   32   37 1
    56   32   33 1
    57   33   34 1
    58   33   58 1
    59   33   59 1
    60   34   35 1
    61   34   60 1
    62   34   61 1
    63   35   36 1
    64   36   37 1
    65   36   62 1
    66   36   63 1
    67   37   64 1
    68   37   65 1
@<TRIPOS>MOLECULE
ZINC33515523
   63    67     0     0     0
SMALL
USER_CHARGES
(2R)-4-hydroxy-3-(5-methylbenzofuran-2-carbonyl)-1-(3-morpholinopropyl)-2-(4-nitrophenyl)-2H-pyrrol-5-one
@<TRIPOS>ATOM
      1 C1         -3.8675    6.0710   -5.3754 C.3       1 <0>        -0.1105
      2 C2         -2.9642    5.1606   -4.5840 C.ar      1 <0>        -0.1106
      3 C3         -1.7448    4.7653   -5.1175 C.ar      1 <0>        -0.0919
      4 C4         -0.9032    3.9328   -4.4115 C.ar      1 <0>        -0.1041
      5 C5         -1.2745    3.4809   -3.1507 C.ar      1 <0>         0.0567
      6 C6         -2.5121    3.8848   -2.6143 C.ar      1 <0>        -0.1340
      7 C7         -3.3509    4.7295   -3.3467 C.ar      1 <0>        -0.0669
      8 C8         -2.6038    3.2451   -1.3035 C.2       1 <0>        -0.1547
      9 C9         -1.4522    2.5362   -1.1490 C.2       1 <0>        -0.0062
     10 O1         -0.6790    2.6803   -2.2451 O.3       1 <0>        -0.1641
     11 C10        -1.1065    1.7310    0.0300 C.2       1 <0>         0.5382
     12 O2         -1.9082    1.6057    0.9383 O.2       1 <0>        -0.4442
     13 C11         0.2044    1.0779    0.1134 C.2       1 <0>        -0.5059
     14 C12         0.4435   -0.2540    0.1210 C.2       1 <0>         0.2760
     15 C13         1.8995   -0.4856    0.2103 C.2       1 <0>         0.5148
     16 O3          2.4314   -1.5778    0.2375 O.2       1 <0>        -0.5256
     17 N1          2.5500    0.6912    0.2571 N.am      1 <0>        -0.6109
     18 C14         1.5485    1.7626    0.2007 C.3       1 <0>         0.2628
     19 H1          1.7411    2.4128   -0.6654 H         1 <0>         0.0818
     20 C15         1.6206    2.6057    1.4477 C.ar      1 <0>        -0.0210
     21 C16         1.7645    2.0019    2.6828 C.ar      1 <0>        -0.0909
     22 C17         1.8355    2.7755    3.8263 C.ar      1 <0>        -0.0532
     23 C18         1.7525    4.1524    3.7355 C.ar      1 <0>        -0.0559
     24 C19         1.6029    4.7558    2.5008 C.ar      1 <0>        -0.0532
     25 C20         1.5371    3.9825    1.3569 C.ar      1 <0>        -0.1161
     26 N2          1.8234    4.9804    4.9603 N.pl3     1 <0>         0.0349
     27 O4          1.7498    6.1936    4.8803 O.2       1 <0>        -0.1711
     28 O5          1.9552    4.4487    6.0481 O.3       1 <0>        -0.1689
     29 C21         4.0010    0.8713    0.3484 C.3       1 <0>         0.1359
     30 C22         4.5958    0.9411   -1.0596 C.3       1 <0>        -0.1347
     31 C23         6.1112    1.1292   -0.9643 C.3       1 <0>         0.0586
     32 N3          6.6822    1.1963   -2.3161 N.3       1 <0>        -0.5350
     33 C24         6.5392   -0.0903   -3.0129 C.3       1 <0>         0.0118
     34 C25         7.0919    0.0412   -4.4346 C.3       1 <0>         0.0623
     35 O6          8.4532    0.4754   -4.3732 O.3       1 <0>        -0.3874
     36 C26         8.6290    1.7257   -3.7016 C.3       1 <0>         0.0624
     37 C27         8.0919    1.6112   -2.2725 C.3       1 <0>         0.0163
     38 O7         -0.5017   -1.2207    0.0566 O.3       1 <0>        -0.6394
     39 H2         -3.3934    6.3111   -6.3385 H         1 <0>         0.0650
     40 H3         -4.0395    6.9988   -4.8100 H         1 <0>         0.0678
     41 H4         -4.8289    5.5676   -5.5553 H         1 <0>         0.0679
     42 H5         -1.4522    5.1144   -6.0968 H         1 <0>         0.1326
     43 H6          0.0426    3.6320   -4.8373 H         1 <0>         0.1331
     44 H7         -4.3005    5.0397   -2.9365 H         1 <0>         0.1261
     45 H8         -3.4190    3.3214   -0.5992 H         1 <0>         0.1639
     46 H9          1.8253    0.9259    2.7542 H         1 <0>         0.1430
     47 H10         1.9521    2.3040    4.7909 H         1 <0>         0.1500
     48 H11         1.5377    5.8315    2.4299 H         1 <0>         0.1498
     49 H12         1.4202    4.4540    0.3923 H         1 <0>         0.1449
     50 H13         4.2214    1.8051    0.8863 H         1 <0>         0.0750
     51 H14         4.4424    0.0225    0.8913 H         1 <0>         0.0808
     52 H15         4.3753    0.0072   -1.5975 H         1 <0>         0.0704
     53 H16         4.1544    1.7899   -1.6025 H         1 <0>         0.0768
     54 H17         6.3316    2.0630   -0.4263 H         1 <0>         0.0774
     55 H18         6.5526    0.2804   -0.4215 H         1 <0>         0.0376
     56 H19         7.0995   -0.8656   -2.4699 H         1 <0>         0.0433
     57 H20         5.4757   -0.3682   -3.0551 H         1 <0>         0.0933
     58 H21         7.0386   -0.9342   -4.9404 H         1 <0>         0.0992
     59 H22         6.4951    0.7771   -4.9934 H         1 <0>         0.0608
     60 H23         9.6989    1.9798   -3.6740 H         1 <0>         0.0972
     61 H24         8.0792    2.5117   -4.2401 H         1 <0>         0.0599
     62 H25         8.1717    2.5862   -1.7695 H         1 <0>         0.0862
     63 H26         8.6773    0.8633   -1.7175 H         1 <0>         0.0419
@<TRIPOS>BOND
     1    1    2 1
     2    1   39 1
     3    1   40 1
     4    1   41 1
     5    2    7 ar
     6    2    3 ar
     7    3    4 ar
     8    3   42 1
     9    4    5 ar
    10    4   43 1
    11    5   10 1
    12    5    6 ar
    13    6    7 ar
    14    6    8 1
    15    7   44 1
    16    8    9 2
    17    8   45 1
    18    9   10 1
    19    9   11 1
    20   11   12 2
    21   11   13 1
    22   13   18 1
    23   13   14 2
    24   14   15 1
    25   14   38 1
    26   15   16 2
    27   15   17 am
    28   17   18 1
    29   17   29 1
    30   18   19 1
    31   18   20 1
    32   20   25 ar
    33   20   21 ar
    34   21   22 ar
    35   21   46 1
    36   22   23 ar
    37   22   47 1
    38   23   24 ar
    39   23   26 1
    40   24   25 ar
    41   24   48 1
    42   25   49 1
    43   26   27 2
    44   26   28 1
    45   29   30 1
    46   29   50 1
    47   29   51 1
    48   30   31 1
    49   30   52 1
    50   30   53 1
    51   31   32 1
    52   31   54 1
    53   31   55 1
    54   32   37 1
    55   32   33 1
    56   33   34 1
    57   33   56 1
    58   33   57 1
    59   34   35 1
    60   34   58 1
    61   34   59 1
    62   35   36 1
    63   36   37 1
    64   36   60 1
    65   36   61 1
    66   37   62 1
    67   37   63 1
@<TRIPOS>MOLECULE
ZINC39482783
   56    58     0     0     0
SMALL
USER_CHARGES

@<TRIPOS>ATOM
      1 C1         -0.0187    1.5258    0.0104 C.3       1 <0>        -0.1310
      2 C2          0.0021   -0.0041    0.0020 C.3       1 <0>        -0.5343
      3 C3          0.7421   -0.5109    1.2415 C.3       1 <0>        -0.1571
      4 S1         -1.6997   -0.6320    0.0149 S.o2      1 <0>         1.7571
      5 O1         -2.3591   -0.2345    1.2093 O.2       1 <0>        -0.8709
      6 O2         -2.3081   -0.4232   -1.2522 O.2       1 <0>        -0.8873
      7 S2         -1.5093   -2.6668    0.1748 S.o2      1 <0>         2.0284
      8 O3         -0.8976   -3.1132   -1.0275 O.2       1 <0>        -0.9227
      9 O4         -0.9490   -2.9229    1.4553 O.2       1 <0>        -0.9160
     10 N1         -3.0386   -3.3019    0.1918 N.2       1 <0>        -0.9182
     11 C4         -3.2207   -4.6864    0.2942 C.ar      1 <0>         0.3038
     12 C5         -2.1219   -5.5271    0.3872 C.ar      1 <0>        -0.2652
     13 C6         -2.3040   -6.8940    0.4887 C.ar      1 <0>         0.0368
     14 C7         -3.5798   -7.4267    0.4978 C.ar      1 <0>        -0.7776
     15 C8         -4.6810   -6.5957    0.4055 C.ar      1 <0>         0.0174
     16 C9         -4.5078   -5.2234    0.3087 C.ar      1 <0>         0.1016
     17 N2         -5.6217   -4.3795    0.2205 N.pl3     1 <0>        -0.6447
     18 C10        -6.1996   -4.0264   -1.0851 C.3       1 <0>         0.1573
     19 C11        -6.3353   -2.5019   -1.1610 C.3       1 <0>         0.0316
     20 N3         -7.0917   -2.0222    0.0034 N.3       1 <0>        -0.6929
     21 C12        -6.3786   -2.3063    1.2559 C.3       1 <0>         0.2264
     22 H1         -6.9374   -1.8913    2.0947 H         1 <0>         0.0871
     23 C13        -6.2484   -3.8277    1.4312 C.3       1 <0>         0.1399
     24 F1         -5.1060   -1.7269    1.2103 F         1 <0>        -0.2032
     25 S3         -3.8030   -9.1698    0.6268 S.o2      1 <0>         2.6794
     26 O5         -5.0756   -9.4590    0.0646 O.2       1 <0>        -0.9653
     27 O6         -2.6057   -9.7689    0.1506 O.2       1 <0>        -0.9455
     28 O7         -3.8964   -9.5030    2.1090 O.3       1 <0>        -0.6678
     29 C14        -5.0830   -9.1638    2.6781 C.ar      1 <0>         0.0719
     30 C15        -5.2516   -7.9046    3.2353 C.ar      1 <0>        -0.1124
     31 C16        -6.4589   -7.5620    3.8128 C.ar      1 <0>        -0.1011
     32 C17        -7.4986   -8.4732    3.8361 C.ar      1 <0>        -0.1050
     33 C18        -7.3330   -9.7290    3.2818 C.ar      1 <0>        -0.1075
     34 C19        -6.1296  -10.0742    2.6976 C.ar      1 <0>        -0.0975
     35 H2          1.0039    1.9031    0.0027 H         1 <0>         0.0798
     36 H3         -0.5459    1.8868   -0.8726 H         1 <0>         0.0683
     37 H4         -0.5289    1.8773    0.9072 H         1 <0>         0.0726
     38 H5          0.5123   -0.3556   -0.8948 H         1 <0>         0.1371
     39 H6          0.2319   -0.1594    2.1383 H         1 <0>         0.0825
     40 H7          0.7568   -1.6008    1.2356 H         1 <0>         0.0756
     41 H8          1.7647   -0.1336    1.2338 H         1 <0>         0.0843
     42 H9         -1.1240   -5.1144    0.3801 H         1 <0>         0.1103
     43 H10        -1.4472   -7.5475    0.5607 H         1 <0>         0.1277
     44 H11        -5.6762   -7.0152    0.4125 H         1 <0>         0.1311
     45 H12        -5.5437   -4.3758   -1.8825 H         1 <0>         0.0703
     46 H13        -7.1823   -4.4870   -1.1872 H         1 <0>         0.0492
     47 H14        -5.3442   -2.0482   -1.1630 H         1 <0>         0.0604
     48 H15        -6.8627   -2.2287   -2.0750 H         1 <0>         0.0729
     49 H16        -7.2981   -1.0381   -0.0800 H         1 <0>         0.3405
     50 H17        -7.2357   -4.2696    1.5663 H         1 <0>         0.0627
     51 H18        -5.6248   -4.0457    2.2982 H         1 <0>         0.0768
     52 H19        -4.4395   -7.1927    3.2180 H         1 <0>         0.1435
     53 H20        -6.5907   -6.5819    4.2467 H         1 <0>         0.1371
     54 H21        -8.4416   -8.2037    4.2883 H         1 <0>         0.1313
     55 H22        -8.1465  -10.4391    3.3015 H         1 <0>         0.1346
     56 H23        -6.0022  -11.0537    2.2609 H         1 <0>         0.1360
@<TRIPOS>BOND
     1    1    2 1
     2    1   35 1
     3    1   36 1
     4    1   37 1
     5    2    3 1
     6    2    4 1
     7    2   38 1
     8    3   39 1
     9    3   40 1
    10    3   41 1
    11    4    5 2
    12    4    6 2
    13    4    7 1
    14    7    8 2
    15    7    9 2
    16    7   10 1
    17   10   11 1
    18   11   16 ar
    19   11   12 ar
    20   12   13 ar
    21   12   42 1
    22   13   14 ar
    23   13   43 1
    24   14   15 ar
    25   14   25 1
    26   15   16 ar
    27   15   44 1
    28   16   17 1
    29   17   23 1
    30   17   18 1
    31   18   19 1
    32   18   45 1
    33   18   46 1
    34   19   20 1
    35   19   47 1
    36   19   48 1
    37   20   21 1
    38   20   49 1
    39   21   22 1
    40   21   23 1
    41   21   24 1
    42   23   50 1
    43   23   51 1
    44   25   26 2
    45   25   27 2
    46   25   28 1
    47   28   29 1
    48   29   34 ar
    49   29   30 ar
    50   30   31 ar
    51   30   52 1
    52   31   32 ar
    53   31   53 1
    54   32   33 ar
    55   32   54 1
    56   33   34 ar
    57   33   55 1
    58   34   56 1
@<TRIPOS>MOLECULE
ZINC32985018
   61    64     0     0     0
SMALL
USER_CHARGES

@<TRIPOS>ATOM
      1 C1          2.9756    2.0004   -2.4433 C.3       1 <0>        -0.1494
      2 C2          2.8453    0.5303   -2.0398 C.3       1 <0>         0.0593
      3 O1          2.6682   -0.2708   -3.2098 O.3       1 <0>        -0.3285
      4 C3          2.5353   -1.6118   -3.0256 C.ar      1 <0>         0.0156
      5 C4          2.5692   -2.1421   -1.7444 C.ar      1 <0>        -0.1567
      6 C5          2.4343   -3.5037   -1.5564 C.ar      1 <0>        -0.1485
      7 C6          2.2647   -4.3418   -2.6505 C.ar      1 <0>         0.2537
      8 C7          2.2308   -3.8100   -3.9328 C.ar      1 <0>        -0.2303
      9 C8          2.3602   -2.4475   -4.1186 C.ar      1 <0>        -0.0894
     10 N1          2.1284   -5.7215   -2.4610 N.2       1 <0>        -1.0875
     11 S1          1.9261   -6.7206   -3.7661 S.o2      1 <0>         2.6294
     12 O2          0.6647   -6.3962   -4.3343 O.2       1 <0>        -1.0151
     13 O3          3.1346   -6.6645   -4.5116 O.2       1 <0>        -1.0190
     14 C9          1.7919   -8.3650   -3.1476 C.2       1 <0>        -0.4613
     15 C10         2.8494   -9.2521   -2.9340 C.2       1 <0>        -0.0660
     16 C11         2.2653  -10.4082   -2.4462 C.2       1 <0>        -0.0666
     17 N2          0.9223  -10.1641   -2.3926 N.pl3     1 <0>        -0.3731
     18 H1          0.2512  -10.7951   -2.0887 H         1 <0>         0.4432
     19 N3          0.6843   -8.9699   -2.8014 N.2       1 <0>        -0.1641
     20 C12         2.9530  -11.6514   -2.0629 C.2       1 <0>         0.6041
     21 O4          4.0873  -11.6090   -1.6259 O.2       1 <0>        -0.5085
     22 N4          2.3261  -12.8370   -2.1961 N.am      1 <0>        -0.6155
     23 C13         1.0449  -12.9296   -2.9103 C.3       1 <0>         0.0767
     24 C14         1.1813  -13.9702   -4.0286 C.3       1 <0>         0.1033
     25 N5          1.7668  -15.1937   -3.4627 N.pl3     1 <0>        -0.6164
     26 C15         3.0479  -15.1012   -2.7485 C.3       1 <0>         0.1011
     27 C16         2.9142  -14.0614   -1.6350 C.3       1 <0>         0.0992
     28 C17         1.1207  -16.4155   -3.6000 C.ar      1 <0>         0.2572
     29 C18        -0.0253  -16.5106   -4.3865 C.ar      1 <0>        -0.2166
     30 C19        -0.6639  -17.7097   -4.5238 C.ar      1 <0>        -0.0046
     31 C20        -0.1648  -18.8455   -3.8727 C.ar      1 <0>        -0.2431
     32 C21         0.9883  -18.7453   -3.0830 C.ar      1 <0>        -0.0179
     33 C22         1.6236  -17.5434   -2.9553 C.ar      1 <0>        -0.2166
     34 C23        -0.8480  -20.1362   -4.0169 C.2       1 <0>         0.3985
     35 O5         -1.8464  -20.2209   -4.7008 O.2       1 <0>        -0.4736
     36 C24        -0.3093  -21.3565   -3.3156 C.3       1 <0>        -0.2011
     37 H2          3.8366    2.1218   -3.1006 H         1 <0>         0.0617
     38 H3          2.0723    2.3152   -2.9659 H         1 <0>         0.0616
     39 H4          3.1107    2.6115   -1.5509 H         1 <0>         0.0696
     40 H5          3.7486    0.2155   -1.5173 H         1 <0>         0.0524
     41 H6          1.9843    0.4089   -1.3825 H         1 <0>         0.0523
     42 H7          2.7015   -1.4901   -0.8936 H         1 <0>         0.1107
     43 H8          2.4611   -3.9165   -0.5588 H         1 <0>         0.1154
     44 H9          2.0990   -4.4611   -4.7843 H         1 <0>         0.1040
     45 H10         2.3291   -2.0332   -5.1154 H         1 <0>         0.1115
     46 H11         3.8996   -9.0740   -3.1121 H         1 <0>         0.1772
     47 H12         0.2615  -13.2373   -2.2178 H         1 <0>         0.0826
     48 H13         0.7955  -11.9600   -3.3413 H         1 <0>         0.0971
     49 H14         0.1981  -14.1929   -4.4430 H         1 <0>         0.1032
     50 H15         1.8319  -13.5820   -4.8122 H         1 <0>         0.0779
     51 H16         3.2973  -16.0708   -2.3175 H         1 <0>         0.1018
     52 H17         3.8314  -14.7934   -3.4410 H         1 <0>         0.0761
     53 H18         3.8990  -13.8391   -1.2241 H         1 <0>         0.1097
     54 H19         2.2669  -14.4516   -0.8497 H         1 <0>         0.0767
     55 H20        -0.4093  -15.6347   -4.8881 H         1 <0>         0.1294
     56 H21        -1.5526  -17.7825   -5.1332 H         1 <0>         0.1316
     57 H22         1.3761  -19.6183   -2.5791 H         1 <0>         0.1314
     58 H23         2.5149  -17.4662   -2.3504 H         1 <0>         0.1301
     59 H24        -0.7596  -21.4353   -2.3261 H         1 <0>         0.0950
     60 H25        -0.5515  -22.2462   -3.8969 H         1 <0>         0.0848
     61 H26         0.7727  -21.2706   -3.2166 H         1 <0>         0.0842
@<TRIPOS>BOND
     1    1    2 1
     2    1   37 1
     3    1   38 1
     4    1   39 1
     5    2    3 1
     6    2   40 1
     7    2   41 1
     8    3    4 1
     9    4    9 ar
    10    4    5 ar
    11    5    6 ar
    12    5   42 1
    13    6    7 ar
    14    6   43 1
    15    7    8 ar
    16    7   10 1
    17    8    9 ar
    18    8   44 1
    19    9   45 1
    20   10   11 1
    21   11   12 2
    22   11   13 2
    23   11   14 1
    24   14   19 2
    25   14   15 1
    26   15   16 2
    27   15   46 1
    28   16   17 1
    29   16   20 1
    30   17   18 1
    31   17   19 1
    32   20   21 2
    33   20   22 am
    34   22   27 1
    35   22   23 1
    36   23   24 1
    37   23   47 1
    38   23   48 1
    39   24   25 1
    40   24   49 1
    41   24   50 1
    42   25   26 1
    43   25   28 1
    44   26   27 1
    45   26   51 1
    46   26   52 1
    47   27   53 1
    48   27   54 1
    49   28   33 ar
    50   28   29 ar
    51   29   30 ar
    52   29   55 1
    53   30   31 ar
    54   30   56 1
    55   31   32 ar
    56   31   34 1
    57   32   33 ar
    58   32   57 1
    59   33   58 1
    60   34   35 2
    61   34   36 1
    62   36   59 1
    63   36   60 1
    64   36   61 1
@<TRIPOS>MOLECULE
ZINC09081408
   49    52     0     0     0
SMALL
USER_CHARGES
N-[2-benzo[1,3]dioxol-5-ylsulfonyl-2-(2-furyl)ethyl]-1,1-dioxo-thiolane-3-sulfonamide
@<TRIPOS>ATOM
      1 C1          1.4190    2.0998   -1.5941 C.2       1 <0>        -0.2160
      2 C2          0.3405    1.2181   -1.3524 C.2       1 <0>        -0.1531
      3 C3         -0.7276    1.9807   -1.0576 C.2       1 <0>        -0.0401
      4 O1         -0.3534    3.2699   -1.0999 O.3       1 <0>        -0.1626
      5 C4          0.9466    3.3482   -1.4278 C.2       1 <0>        -0.0097
      6 C5         -2.1091    1.4743   -0.7319 C.3       1 <0>        -0.4896
      7 H1         -2.1153    0.3850   -0.7708 H         1 <0>         0.1771
      8 C6         -3.1082    2.0267   -1.7505 C.3       1 <0>         0.1271
      9 N1         -4.4511    1.5343   -1.4339 N.pl3     1 <0>        -1.1353
     10 S1         -5.7773    2.2390   -2.1318 S.o2      1 <0>         2.6289
     11 O2         -5.4988    2.2350   -3.5253 O.2       1 <0>        -0.9303
     12 O3         -6.8863    1.5181   -1.6126 O.2       1 <0>        -0.9275
     13 C7         -5.7873    3.9400   -1.5016 C.3       1 <0>        -0.6260
     14 H2         -4.8552    4.4374   -1.7699 H         1 <0>         0.1650
     15 C8         -5.9471    3.9262    0.0277 C.3       1 <0>        -0.1135
     16 C9         -6.2762    5.3502    0.5368 C.3       1 <0>        -0.5685
     17 S2         -7.1353    6.1052   -0.9035 S.o2      1 <0>         2.3856
     18 O4         -6.3695    7.2061   -1.3734 O.2       1 <0>        -0.9239
     19 O5         -8.5056    6.2944   -0.5785 O.2       1 <0>        -0.9260
     20 C10        -6.9908    4.7174   -2.1069 C.3       1 <0>        -0.5717
     21 S3         -2.5772    2.0225    0.9327 S.o2      1 <0>         2.4893
     22 O6         -2.5126    3.4395    1.0175 O.2       1 <0>        -0.9091
     23 O7         -3.7334    1.3225    1.3715 O.2       1 <0>        -0.9160
     24 C11        -1.2806    1.4499    1.9794 C.ar      1 <0>        -0.6566
     25 C12        -1.3681    0.2008    2.5655 C.ar      1 <0>        -0.0073
     26 C13        -0.3508   -0.2552    3.3829 C.ar      1 <0>        -0.1211
     27 C14         0.7541    0.5444    3.6264 C.ar      1 <0>         0.0973
     28 C15         0.8397    1.8049    3.0403 C.ar      1 <0>         0.0154
     29 C16        -0.1808    2.2528    2.2173 C.ar      1 <0>         0.0031
     30 O8          2.0101    2.3889    3.4307 O.3       1 <0>        -0.3007
     31 C17         2.4461    1.6436    4.5829 C.3       1 <0>         0.2098
     32 O9          1.8709    0.3387    4.3839 O.3       1 <0>        -0.3005
     33 H3          2.4283    1.8239   -1.8617 H         1 <0>         0.1561
     34 H4          0.3679    0.1395   -1.3998 H         1 <0>         0.1557
     35 H5          1.5161    4.2591   -1.5393 H         1 <0>         0.2127
     36 H6         -3.1020    3.1159   -1.7116 H         1 <0>         0.0984
     37 H7         -2.8269    1.6972   -2.7508 H         1 <0>         0.1174
     38 H8         -4.5635    0.7956   -0.8154 H         1 <0>         0.4321
     39 H9         -6.7555    3.2481    0.3010 H         1 <0>         0.1138
     40 H10        -5.0188    3.5842    0.4855 H         1 <0>         0.1022
     41 H11        -5.3635    5.8973    0.7727 H         1 <0>         0.1505
     42 H12        -6.9363    5.3108    1.4034 H         1 <0>         0.1534
     43 H13        -6.7598    5.0851   -3.1067 H         1 <0>         0.1628
     44 H14        -7.8927    4.1053   -2.1128 H         1 <0>         0.1535
     45 H15        -2.2310   -0.4219    2.3807 H         1 <0>         0.1604
     46 H16        -0.4198   -1.2331    3.8361 H         1 <0>         0.1514
     47 H17        -0.1169    3.2297    1.7612 H         1 <0>         0.1528
     48 H18         2.0636    2.0952    5.4983 H         1 <0>         0.0928
     49 H19         3.5339    1.5822    4.6130 H         1 <0>         0.1406
@<TRIPOS>BOND
     1    1    5 2
     2    1    2 1
     3    1   33 1
     4    2    3 2
     5    2   34 1
     6    3    4 1
     7    3    6 1
     8    4    5 1
     9    5   35 1
    10    6    7 1
    11    6    8 1
    12    6   21 1
    13    8    9 1
    14    8   36 1
    15    8   37 1
    16    9   10 1
    17    9   38 1
    18   10   11 2
    19   10   12 2
    20   10   13 1
    21   13   14 1
    22   13   20 1
    23   13   15 1
    24   15   16 1
    25   15   39 1
    26   15   40 1
    27   16   17 1
    28   16   41 1
    29   16   42 1
    30   17   18 2
    31   17   19 2
    32   17   20 1
    33   20   43 1
    34   20   44 1
    35   21   22 2
    36   21   23 2
    37   21   24 1
    38   24   29 ar
    39   24   25 ar
    40   25   26 ar
    41   25   45 1
    42   26   27 ar
    43   26   46 1
    44   27   32 1
    45   27   28 ar
    46   28   29 ar
    47   28   30 1
    48   29   47 1
    49   30   31 1
    50   31   32 1
    51   31   48 1
    52   31   49 1
@<TRIPOS>MOLECULE
ZINC11596866
   59    62     0     0     0
SMALL
USER_CHARGES
1-(2,5-dioxabicyclo[4.4.0]deca-7,9,11-trien-8-ylsulfonyl)-N-(3,4,5-trimethoxyphenyl)-pyrrolidine-2-carboxamide
@<TRIPOS>ATOM
      1 C1         -3.4510   -3.9541   -2.2283 C.3       1 <0>         0.0236
      2 O1         -2.2820   -3.5818   -1.4956 O.3       1 <0>        -0.2991
      3 C2         -2.3551   -2.4453   -0.7524 C.ar      1 <0>         0.1699
      4 C3         -3.5271   -1.7058   -0.7300 C.ar      1 <0>        -0.2355
      5 C4         -3.6017   -0.5454    0.0282 C.ar      1 <0>         0.2265
      6 C5         -2.5031   -0.1250    0.7653 C.ar      1 <0>        -0.2614
      7 C6         -1.3304   -0.8635    0.7444 C.ar      1 <0>         0.1694
      8 C7         -1.2563   -2.0281   -0.0106 C.ar      1 <0>         0.0128
      9 O2         -0.1066   -2.7572   -0.0272 O.3       1 <0>        -0.3103
     10 C8          0.8562   -2.4276   -1.0304 C.3       1 <0>         0.0345
     11 O3         -0.2543   -0.4515    1.4666 O.3       1 <0>        -0.2993
     12 C9         -0.4030    0.7513    2.2237 C.3       1 <0>         0.0241
     13 N1         -4.7866    0.2016    0.0498 N.am      1 <0>        -0.6708
     14 C10        -5.9780   -0.4216   -0.0434 C.2       1 <0>         0.4963
     15 O4         -6.0296   -1.6334   -0.0495 O.2       1 <0>        -0.4795
     16 C11        -7.2459    0.3872   -0.1400 C.3       1 <0>         0.1366
     17 H1         -7.3480    1.0226    0.7397 H         1 <0>         0.1075
     18 C12        -7.2182    1.2563   -1.4149 C.3       1 <0>        -0.1211
     19 C13        -8.6868    1.1917   -1.9114 C.3       1 <0>        -0.1285
     20 C14        -9.0785   -0.2592   -1.5359 C.3       1 <0>         0.1169
     21 N2         -8.4048   -0.5110   -0.2490 N.pl3     1 <0>        -0.9915
     22 S1         -8.8750   -1.6219    0.8855 S.o2      1 <0>         2.7099
     23 O5         -9.6272   -2.6117    0.1973 O.2       1 <0>        -0.9440
     24 O6         -7.7185   -1.9376    1.6485 O.2       1 <0>        -0.9241
     25 C15        -9.9929   -0.8091    1.9784 C.ar      1 <0>        -0.6824
     26 C16       -11.3488   -0.8151    1.7084 C.ar      1 <0>        -0.0155
     27 C17       -12.2286   -0.1777    2.5625 C.ar      1 <0>        -0.1328
     28 C18       -11.7534    0.4692    3.6937 C.ar      1 <0>         0.1078
     29 C19       -10.3907    0.4731    3.9663 C.ar      1 <0>         0.0309
     30 C20        -9.5135   -0.1717    3.1069 C.ar      1 <0>        -0.0129
     31 O7         -9.9035    1.0981    5.0729 O.3       1 <0>        -0.3027
     32 C21       -10.7680    2.0453    5.7097 C.3       1 <0>         0.0190
     33 C22       -12.1609    1.4140    5.8375 C.3       1 <0>         0.0166
     34 O8        -12.6316    1.0965    4.5231 O.3       1 <0>        -0.3009
     35 H2         -3.2580   -4.8762   -2.7765 H         1 <0>         0.1038
     36 H3         -4.2792   -4.1091   -1.5368 H         1 <0>         0.0637
     37 H4         -3.7076   -3.1609   -2.9306 H         1 <0>         0.0551
     38 H5         -4.3824   -2.0323   -1.3029 H         1 <0>         0.1484
     39 H6         -2.5623    0.7775    1.3554 H         1 <0>         0.1389
     40 H7          0.4121   -2.5586   -2.0172 H         1 <0>         0.0435
     41 H8          1.1687   -1.3906   -0.9074 H         1 <0>         0.0432
     42 H9          1.7222   -3.0822   -0.9319 H         1 <0>         0.0918
     43 H10         0.5264    0.9658    2.7512 H         1 <0>         0.1035
     44 H11        -0.6383    1.5768    1.5519 H         1 <0>         0.0568
     45 H12        -1.2105    0.6288    2.9455 H         1 <0>         0.0585
     46 H13        -4.7496    1.1674    0.1319 H         1 <0>         0.4130
     47 H14        -6.9365    2.2819   -1.1765 H         1 <0>         0.0954
     48 H15        -6.5414    0.8317   -2.1564 H         1 <0>         0.0853
     49 H16        -9.3098    1.9137   -1.3835 H         1 <0>         0.0829
     50 H17        -8.7419    1.3447   -2.9892 H         1 <0>         0.0917
     51 H18       -10.1593   -0.3427   -1.4210 H         1 <0>         0.0842
     52 H19        -8.7218   -0.9567   -2.2937 H         1 <0>         0.0781
     53 H20       -11.7210   -1.3183    0.8283 H         1 <0>         0.1503
     54 H21       -13.2873   -0.1831    2.3489 H         1 <0>         0.1476
     55 H22        -8.4542   -0.1719    3.3176 H         1 <0>         0.1505
     56 H23       -10.8288    2.9511    5.1065 H         1 <0>         0.0813
     57 H24       -10.3820    2.2876    6.6999 H         1 <0>         0.1286
     58 H25       -12.8426    2.1204    6.3113 H         1 <0>         0.1293
     59 H26       -12.0997    0.5048    6.4356 H         1 <0>         0.0843
@<TRIPOS>BOND
     1    1    2 1
     2    1   35 1
     3    1   36 1
     4    1   37 1
     5    2    3 1
     6    3    8 ar
     7    3    4 ar
     8    4    5 ar
     9    4   38 1
    10    5    6 ar
    11    5   13 1
    12    6    7 ar
    13    6   39 1
    14    7    8 ar
    15    7   11 1
    16    8    9 1
    17    9   10 1
    18   10   40 1
    19   10   41 1
    20   10   42 1
    21   11   12 1
    22   12   43 1
    23   12   44 1
    24   12   45 1
    25   13   14 am
    26   13   46 1
    27   14   15 2
    28   14   16 1
    29   16   17 1
    30   16   21 1
    31   16   18 1
    32   18   19 1
    33   18   47 1
    34   18   48 1
    35   19   20 1
    36   19   49 1
    37   19   50 1
    38   20   21 1
    39   20   51 1
    40   20   52 1
    41   21   22 1
    42   22   23 2
    43   22   24 2
    44   22   25 1
    45   25   30 ar
    46   25   26 ar
    47   26   27 ar
    48   26   53 1
    49   27   28 ar
    50   27   54 1
    51   28   34 1
    52   28   29 ar
    53   29   30 ar
    54   29   31 1
    55   30   55 1
    56   31   32 1
    57   32   33 1
    58   32   56 1
    59   32   57 1
    60   33   34 1
    61   33   58 1
    62   33   59 1
@<TRIPOS>MOLECULE
ZINC15917794
   59    61     0     0     0
SMALL
USER_CHARGES
3-(4-acetylpiperazin-1-yl)sulfonyl-N-[4-(dimethylsulfamoyl)phenyl]benzamide
@<TRIPOS>ATOM
      1 C1         -1.5409    5.2036   -3.6381 C.3       1 <0>        -0.1804
      2 C2         -1.1706    3.7451   -3.5565 C.2       1 <0>         0.5153
      3 O1         -0.5524    3.2249   -4.4610 O.2       1 <0>        -0.5429
      4 N1         -1.5263    3.0188   -2.4783 N.am      1 <0>        -0.6151
      5 C3         -1.2828    1.5700   -2.4389 C.3       1 <0>         0.0983
      6 C4         -0.4629    1.2448   -1.1842 C.3       1 <0>         0.1030
      7 N2         -1.0972    1.8879   -0.0249 N.pl3     1 <0>        -0.9964
      8 C5         -1.3444    3.3363   -0.0661 C.3       1 <0>         0.0998
      9 C6         -2.1643    3.6615   -1.3208 C.3       1 <0>         0.0898
     10 S1         -1.5306    0.9958    1.3013 S.o2      1 <0>         2.6896
     11 O2         -2.5647    1.7177    1.9561 O.2       1 <0>        -0.9434
     12 O3         -1.7015   -0.3417    0.8528 O.2       1 <0>        -0.9451
     13 C7         -0.1508    0.9871    2.3970 C.ar      1 <0>        -0.6855
     14 C8          0.8025   -0.0111    2.2988 C.ar      1 <0>         0.0102
     15 C9          1.8919   -0.0221    3.1514 C.ar      1 <0>        -0.1403
     16 C10         2.0286    0.9573    4.1136 C.ar      1 <0>        -0.0305
     17 C11         1.0677    1.9638    4.2218 C.ar      1 <0>        -0.1583
     18 C12        -0.0262    1.9722    3.3545 C.ar      1 <0>         0.0432
     19 C13         1.2074    3.0159    5.2506 C.2       1 <0>         0.5629
     20 O4          0.3688    3.8911    5.3428 O.2       1 <0>        -0.4995
     21 N3          2.2647    3.0050    6.0864 N.am      1 <0>        -0.6734
     22 C14         2.3410    3.9333    7.1296 C.ar      1 <0>         0.2032
     23 C15         3.5736    4.4381    7.5232 C.ar      1 <0>        -0.1648
     24 C16         3.6449    5.3587    8.5503 C.ar      1 <0>         0.0012
     25 C17         2.4920    5.7697    9.1938 C.ar      1 <0>        -0.6930
     26 C18         1.2638    5.2648    8.8080 C.ar      1 <0>         0.0029
     27 C19         1.1849    4.3482    7.7780 C.ar      1 <0>        -0.1414
     28 S2          2.5881    6.9397   10.5077 S.o2      1 <0>         2.6939
     29 O5          3.7921    7.6693   10.3146 O.2       1 <0>        -0.9525
     30 O6          1.3177    7.5721   10.5821 O.2       1 <0>        -0.9523
     31 N4          2.7737    6.0837   11.9131 N.pl3     1 <0>        -1.0056
     32 C20         4.1162    5.7545   12.3984 C.3       1 <0>         0.0914
     33 C21         1.5953    5.6555   12.6710 C.3       1 <0>         0.0803
     34 H1         -2.1741    5.4657   -2.7905 H         1 <0>         0.0833
     35 H2         -0.6355    5.8101   -3.6164 H         1 <0>         0.0966
     36 H3         -2.0809    5.3900   -4.5664 H         1 <0>         0.0976
     37 H4         -0.7278    1.2681   -3.3271 H         1 <0>         0.1082
     38 H5         -2.2333    1.0376   -2.4030 H         1 <0>         0.0776
     39 H6         -0.4359    0.1655   -1.0344 H         1 <0>         0.1071
     40 H7          0.5524    1.6233   -1.3024 H         1 <0>         0.0784
     41 H8         -0.3927    3.8664   -0.1035 H         1 <0>         0.0792
     42 H9         -1.8982    3.6411    0.8219 H         1 <0>         0.1099
     43 H10        -2.1913    4.7409   -1.4706 H         1 <0>         0.1084
     44 H11        -3.1798    3.2827   -1.2057 H         1 <0>         0.0816
     45 H12         0.6977   -0.7828    1.5505 H         1 <0>         0.1493
     46 H13         2.6345   -0.8017    3.0669 H         1 <0>         0.1459
     47 H14         2.8770    0.9449    4.7818 H         1 <0>         0.1361
     48 H15        -0.7730    2.7484    3.4327 H         1 <0>         0.1560
     49 H16         2.9726    2.3532    5.9645 H         1 <0>         0.4143
     50 H17         4.4748    4.1141    7.0240 H         1 <0>         0.1380
     51 H18         4.6026    5.7549    8.8539 H         1 <0>         0.1457
     52 H19         0.3652    5.5878    9.3126 H         1 <0>         0.1458
     53 H20         0.2253    3.9548    7.4767 H         1 <0>         0.1447
     54 H21         4.4721    6.5517   13.0511 H         1 <0>         0.0631
     55 H22         4.0819    4.8177   12.9545 H         1 <0>         0.0751
     56 H23         4.7933    5.6493   11.5508 H         1 <0>         0.0717
     57 H24         1.2801    4.6705   12.3267 H         1 <0>         0.0566
     58 H25         1.8431    5.6076   13.7314 H         1 <0>         0.0798
     59 H26         0.7862    6.3697   12.5188 H         1 <0>         0.0853
@<TRIPOS>BOND
     1    1    2 1
     2    1   34 1
     3    1   35 1
     4    1   36 1
     5    2    3 2
     6    2    4 am
     7    4    9 1
     8    4    5 1
     9    5    6 1
    10    5   37 1
    11    5   38 1
    12    6    7 1
    13    6   39 1
    14    6   40 1
    15    7    8 1
    16    7   10 1
    17    8    9 1
    18    8   41 1
    19    8   42 1
    20    9   43 1
    21    9   44 1
    22   10   11 2
    23   10   12 2
    24   10   13 1
    25   13   18 ar
    26   13   14 ar
    27   14   15 ar
    28   14   45 1
    29   15   16 ar
    30   15   46 1
    31   16   17 ar
    32   16   47 1
    33   17   18 ar
    34   17   19 1
    35   18   48 1
    36   19   20 2
    37   19   21 am
    38   21   22 1
    39   21   49 1
    40   22   27 ar
    41   22   23 ar
    42   23   24 ar
    43   23   50 1
    44   24   25 ar
    45   24   51 1
    46   25   26 ar
    47   25   28 1
    48   26   27 ar
    49   26   52 1
    50   27   53 1
    51   28   29 2
    52   28   30 2
    53   28   31 1
    54   31   32 1
    55   31   33 1
    56   32   54 1
    57   32   55 1
    58   32   56 1
    59   33   57 1
    60   33   58 1
    61   33   59 1
@<TRIPOS>MOLECULE
ZINC33086178
   71    73     0     0     0
SMALL
USER_CHARGES
N-tert-butyl-2-[3,5-dimethyl-4-[[(3R)-3-(4-methylpiperazine-1-carbonyl)-1-piperidyl]sulfonyl]pyrazol-1-yl]acetamide
@<TRIPOS>ATOM
      1 C1         -2.5624   -0.6816    2.0143 C.3       1 <0>        -0.1097
      2 C2         -1.1262   -0.8130    2.4517 C.2       1 <0>         0.1687
      3 C3         -0.0014   -0.5503    1.6629 C.2       1 <0>        -0.8179
      4 C4          1.0986   -0.7905    2.4134 C.2       1 <0>         0.2257
      5 N1          0.6846   -1.1826    3.6365 N.pl3     1 <0>        -0.3435
      6 N2         -0.7162   -1.1921    3.6349 N.2       1 <0>        -0.2821
      7 C5          1.5476   -1.5408    4.7648 C.3       1 <0>         0.1012
      8 C6          1.8527   -3.0157    4.7155 C.2       1 <0>         0.4978
      9 O1          1.3943   -3.7004    3.8255 O.2       1 <0>        -0.5131
     10 N3          2.6349   -3.5740    5.6605 N.am      1 <0>        -0.7299
     11 C7          2.9315   -5.0079    5.6125 C.3       1 <0>         0.1742
     12 C8          3.6451   -5.3375    4.2999 C.3       1 <0>        -0.1674
     13 C9          3.8328   -5.3819    6.7909 C.3       1 <0>        -0.1566
     14 C10         1.6262   -5.8018    5.6967 C.3       1 <0>        -0.1674
     15 C11         2.5298   -0.6429    1.9649 C.3       1 <0>        -0.1242
     16 S1         -0.0145   -0.0096   -0.0140 S.o2      1 <0>         2.7198
     17 O2         -1.2592   -0.4198   -0.5633 O.2       1 <0>        -0.9518
     18 O3          1.2314   -0.3985   -0.5758 O.2       1 <0>        -0.9572
     19 N4         -0.0285    1.6463    0.0056 N.pl3     1 <0>        -0.9968
     20 C12         1.2293    2.4056    0.0081 C.3       1 <0>         0.1145
     21 C13         1.2125    3.3837    1.1870 C.3       1 <0>        -0.1324
     22 C14        -0.0455    4.2516    1.1067 C.3       1 <0>        -0.1050
     23 C15        -1.2876    3.3623    1.1991 C.3       1 <0>        -0.1232
     24 H1         -1.2825    2.8094    2.1501 H         1 <0>         0.0974
     25 C16        -1.2991    2.3840    0.0147 C.3       1 <0>         0.1366
     26 C17        -2.5253    4.2207    1.1525 C.2       1 <0>         0.5233
     27 O4         -2.9921    4.5542    0.0839 O.2       1 <0>        -0.5327
     28 N5         -3.1136    4.6178    2.2982 N.am      1 <0>        -0.6143
     29 C18        -2.5039    4.3189    3.6029 C.3       1 <0>         0.1063
     30 C19        -2.4195    5.6263    4.4064 C.3       1 <0>         0.0401
     31 N6         -3.7516    6.2424    4.4705 N.3       1 <0>        -0.5420
     32 C20        -4.2300    6.6177    3.1332 C.3       1 <0>         0.0402
     33 C21        -4.3854    5.3562    2.2773 C.3       1 <0>         0.1124
     34 C22        -3.7531    7.4004    5.3743 C.3       1 <0>         0.0225
     35 H2         -2.5976   -0.3441    0.9679 H         1 <0>         0.1052
     36 H3         -3.0747    0.0523    2.6537 H         1 <0>         0.0826
     37 H4         -3.0631   -1.6571    2.1020 H         1 <0>         0.0889
     38 H5          2.4860   -0.9700    4.7043 H         1 <0>         0.1273
     39 H6          1.0346   -1.3039    5.7085 H         1 <0>         0.1319
     40 H7          3.0506   -2.9531    6.4678 H         1 <0>         0.4212
     41 H8          3.8678   -6.4141    4.2639 H         1 <0>         0.0655
     42 H9          4.5835   -4.7668    4.2394 H         1 <0>         0.0551
     43 H10         2.9971   -5.0686    3.4527 H         1 <0>         0.0772
     44 H11         4.0555   -6.4585    6.7549 H         1 <0>         0.0756
     45 H12         3.3197   -5.1450    7.7346 H         1 <0>         0.0635
     46 H13         4.7712   -4.8111    6.7304 H         1 <0>         0.0637
     47 H14         1.8489   -6.8784    5.6607 H         1 <0>         0.0651
     48 H15         0.9782   -5.5328    4.8495 H         1 <0>         0.0772
     49 H16         1.1132   -5.5649    6.6405 H         1 <0>         0.0547
     50 H17         3.2029   -0.9091    2.7932 H         1 <0>         0.0767
     51 H18         2.7139    0.3987    1.6631 H         1 <0>         0.0974
     52 H19         2.7172   -1.3107    1.1111 H         1 <0>         0.1165
     53 H20         2.0764    1.7115    0.1114 H         1 <0>         0.0933
     54 H21         1.3239    2.9615   -0.9364 H         1 <0>         0.0808
     55 H22         1.2109    2.8197    2.1314 H         1 <0>         0.0681
     56 H23         2.1054    4.0248    1.1443 H         1 <0>         0.0835
     57 H24        -0.0480    4.9715    1.9384 H         1 <0>         0.0681
     58 H25        -0.0552    4.7958    0.1508 H         1 <0>         0.0783
     59 H26        -1.4077    2.9388   -0.9289 H         1 <0>         0.0939
     60 H27        -2.1337    1.6755    0.1216 H         1 <0>         0.0958
     61 H28        -3.1252    3.5861    4.1387 H         1 <0>         0.0805
     62 H29        -1.4966    3.9039    3.4505 H         1 <0>         0.0914
     63 H30        -2.0646    5.4086    5.4246 H         1 <0>         0.0892
     64 H31        -1.7181    6.3152    3.9131 H         1 <0>         0.0399
     65 H32        -5.2021    7.1250    3.2206 H         1 <0>         0.0903
     66 H33        -3.5038    7.2956    2.6608 H         1 <0>         0.0395
     67 H34        -4.6314    5.6334    1.2416 H         1 <0>         0.0997
     68 H35        -5.1849    4.7212    2.6867 H         1 <0>         0.0779
     69 H36        -4.7604    7.8415    5.4034 H         1 <0>         0.0725
     70 H37        -3.0349    8.1501    5.0108 H         1 <0>         0.0267
     71 H38        -3.4652    7.0767    6.3854 H         1 <0>         0.0718
@<TRIPOS>BOND
     1    1    2 1
     2    1   35 1
     3    1   36 1
     4    1   37 1
     5    2    6 2
     6    2    3 1
     7    3    4 2
     8    3   16 1
     9    4    5 1
    10    4   15 1
    11    5    6 1
    12    5    7 1
    13    7    8 1
    14    7   38 1
    15    7   39 1
    16    8    9 2
    17    8   10 am
    18   10   11 1
    19   10   40 1
    20   11   12 1
    21   11   13 1
    22   11   14 1
    23   12   41 1
    24   12   42 1
    25   12   43 1
    26   13   44 1
    27   13   45 1
    28   13   46 1
    29   14   47 1
    30   14   48 1
    31   14   49 1
    32   15   50 1
    33   15   51 1
    34   15   52 1
    35   16   17 2
    36   16   18 2
    37   16   19 1
    38   19   25 1
    39   19   20 1
    40   20   21 1
    41   20   53 1
    42   20   54 1
    43   21   22 1
    44   21   55 1
    45   21   56 1
    46   22   23 1
    47   22   57 1
    48   22   58 1
    49   23   24 1
    50   23   25 1
    51   23   26 1
    52   25   59 1
    53   25   60 1
    54   26   27 2
    55   26   28 am
    56   28   33 1
    57   28   29 1
    58   29   30 1
    59   29   61 1
    60   29   62 1
    61   30   31 1
    62   30   63 1
    63   30   64 1
    64   31   32 1
    65   31   34 1
    66   32   33 1
    67   32   65 1
    68   32   66 1
    69   33   67 1
    70   33   68 1
    71   34   69 1
    72   34   70 1
    73   34   71 1
@<TRIPOS>MOLECULE
ZINC41105175
   57    60     0     0     0
SMALL
USER_CHARGES

@<TRIPOS>ATOM
      1 C1          0.2302    1.2828   -0.0128 C.3       1 <0>         0.1109
      2 N1          0.1905   -0.1800    0.0551 N.pl3     1 <0>        -0.6898
      3 C2          1.4369   -0.9423    0.1635 C.3       1 <0>         0.1151
      4 C3         -1.0385   -0.8496    0.0164 C.ar      1 <0>         0.2137
      5 C4         -1.5772   -1.2447   -1.1987 C.ar      1 <0>        -0.1228
      6 C5         -2.7908   -1.9062   -1.2345 C.ar      1 <0>        -0.0239
      7 C6         -3.4706   -2.1758   -0.0612 C.ar      1 <0>        -0.6585
      8 C7         -2.9409   -1.7855    1.1548 C.ar      1 <0>        -0.0724
      9 C8         -1.7218   -1.1263    1.2004 C.ar      1 <0>         0.1270
     10 N2         -1.1809   -0.7349    2.4312 N.pl3     1 <0>        -1.0446
     11 S1         -1.3784   -1.6955    3.7655 S.o2      1 <0>         2.6876
     12 O1         -0.7250   -1.0358    4.8412 O.2       1 <0>        -0.9399
     13 O2         -2.7540   -2.0489    3.8115 O.2       1 <0>        -0.9377
     14 C9         -0.4852   -3.1856    3.4716 C.ar      1 <0>        -0.6748
     15 C10        -1.1097   -4.2545    2.8560 C.ar      1 <0>        -0.0216
     16 C11        -0.4128   -5.4253    2.6250 C.ar      1 <0>        -0.1354
     17 C12         0.9158   -5.5306    3.0091 C.ar      1 <0>         0.1156
     18 C13         1.5443   -4.4553    3.6256 C.ar      1 <0>         0.0343
     19 C14         0.8400   -3.2819    3.8516 C.ar      1 <0>        -0.0071
     20 O3          2.8494   -4.5345    4.0034 O.3       1 <0>        -0.3015
     21 C15         3.4149   -5.8468    4.0934 C.3       1 <0>         0.0180
     22 C16         3.0174   -6.6289    2.8342 C.3       1 <0>         0.0172
     23 O4          1.5882   -6.6912    2.7777 O.3       1 <0>        -0.2979
     24 S2         -5.0170   -3.0188   -0.1158 S.o2      1 <0>         2.6868
     25 O5         -5.7131   -2.6677    1.0722 O.2       1 <0>        -0.9391
     26 O6         -5.5573   -2.7926   -1.4104 O.2       1 <0>        -0.9474
     27 N3         -4.6947   -4.6399   -0.0140 N.pl3     1 <0>        -0.9997
     28 C17        -4.4624   -5.4435   -1.2247 C.3       1 <0>         0.0846
     29 C18        -3.1645   -6.2373   -1.0363 C.3       1 <0>         0.0451
     30 O7         -3.2261   -6.9539    0.1992 O.3       1 <0>        -0.3705
     31 C19        -3.3257   -6.1192    1.3556 C.3       1 <0>         0.0314
     32 C20        -4.6262   -5.3182    1.2900 C.3       1 <0>         0.0788
     33 H1          1.2656    1.6207    0.0306 H         1 <0>         0.0731
     34 H2         -0.2217    1.6155   -0.9473 H         1 <0>         0.0472
     35 H3         -0.3239    1.7008    0.8277 H         1 <0>         0.0427
     36 H4          1.6869   -1.0822    1.2152 H         1 <0>         0.0367
     37 H5          1.3106   -1.9148   -0.3123 H         1 <0>         0.0557
     38 H6          2.2405   -0.3972   -0.3316 H         1 <0>         0.0647
     39 H7         -1.0490   -1.0353   -2.1171 H         1 <0>         0.1400
     40 H8         -3.2091   -2.2129   -2.1818 H         1 <0>         0.1452
     41 H9         -3.4747   -1.9975    2.0694 H         1 <0>         0.1825
     42 H10        -0.6904    0.0989    2.5022 H         1 <0>         0.4304
     43 H11        -2.1440   -4.1745    2.5556 H         1 <0>         0.1454
     44 H12        -0.9031   -6.2591    2.1445 H         1 <0>         0.1515
     45 H13         1.3268   -2.4439    4.3283 H         1 <0>         0.1534
     46 H14         4.5008   -5.7757    4.1545 H         1 <0>         0.1296
     47 H15         3.0288   -6.3535    4.9780 H         1 <0>         0.0831
     48 H16         3.3984   -6.1190    1.9493 H         1 <0>         0.0840
     49 H17         3.4277   -7.6375    2.8832 H         1 <0>         0.1304
     50 H18        -5.2948   -6.1311   -1.3742 H         1 <0>         0.0881
     51 H19        -4.3686   -4.7863   -2.0891 H         1 <0>         0.1005
     52 H20        -3.0456   -6.9413   -1.8600 H         1 <0>         0.1091
     53 H21        -2.3177   -5.5513   -1.0175 H         1 <0>         0.0567
     54 H22        -3.3226   -6.7382    2.2527 H         1 <0>         0.1118
     55 H23        -2.4794   -5.4328    1.3830 H         1 <0>         0.0601
     56 H24        -4.6408   -4.5780    2.0901 H         1 <0>         0.1059
     57 H25        -5.4754   -5.9930    1.3980 H         1 <0>         0.0907
@<TRIPOS>BOND
     1    1    2 1
     2    1   33 1
     3    1   34 1
     4    1   35 1
     5    2    3 1
     6    2    4 1
     7    3   36 1
     8    3   37 1
     9    3   38 1
    10    4    9 ar
    11    4    5 ar
    12    5    6 ar
    13    5   39 1
    14    6    7 ar
    15    6   40 1
    16    7    8 ar
    17    7   24 1
    18    8    9 ar
    19    8   41 1
    20    9   10 1
    21   10   11 1
    22   10   42 1
    23   11   12 2
    24   11   13 2
    25   11   14 1
    26   14   19 ar
    27   14   15 ar
    28   15   16 ar
    29   15   43 1
    30   16   17 ar
    31   16   44 1
    32   17   23 1
    33   17   18 ar
    34   18   19 ar
    35   18   20 1
    36   19   45 1
    37   20   21 1
    38   21   22 1
    39   21   46 1
    40   21   47 1
    41   22   23 1
    42   22   48 1
    43   22   49 1
    44   24   25 2
    45   24   26 2
    46   24   27 1
    47   27   32 1
    48   27   28 1
    49   28   29 1
    50   28   50 1
    51   28   51 1
    52   29   30 1
    53   29   52 1
    54   29   53 1
    55   30   31 1
    56   31   32 1
    57   31   54 1
    58   31   55 1
    59   32   56 1
    60   32   57 1
@<TRIPOS>MOLECULE
ZINC13263916
   54    56     0     0     0
SMALL
USER_CHARGES
(2S)-1-[4-[C-methyl-N-[(3-nitrobenzoyl)amino]carbonimidoyl]phenyl]sulfonylpiperidine-2-carboxylic acid
@<TRIPOS>ATOM
      1 C1          3.0936    6.7360    1.9024 C.3       1 <0>        -0.1618
      2 C2          1.8179    7.5240    1.7520 C.2       1 <0>         0.1511
      3 N1          0.6708    6.9385    1.9123 N.2       1 <0>        -0.2297
      4 N2          0.6185    5.5739    2.2251 N.am      1 <0>        -0.5778
      5 C3         -0.5728    4.9659    2.3916 C.2       1 <0>         0.5769
      6 O1         -1.6021    5.6017    2.2703 O.2       1 <0>        -0.4843
      7 C4         -0.6279    3.5264    2.7216 C.ar      1 <0>        -0.1246
      8 C5          0.5521    2.7933    2.8617 C.ar      1 <0>        -0.0394
      9 C6          0.4935    1.4503    3.1702 C.ar      1 <0>        -0.1176
     10 C7         -0.7313    0.8291    3.3405 C.ar      1 <0>        -0.0300
     11 C8         -1.9045    1.5482    3.1975 C.ar      1 <0>        -0.0483
     12 C9         -1.8600    2.8937    2.8951 C.ar      1 <0>         0.0052
     13 N3         -3.2102    0.8740    3.3750 N.pl3     1 <0>         0.0260
     14 O2         -3.2509   -0.3126    3.6465 O.2       1 <0>        -0.1528
     15 O3         -4.2439    1.5059    3.2494 O.3       1 <0>        -0.1477
     16 C10         1.8730    8.9604    1.4227 C.ar      1 <0>        -0.0140
     17 C11         3.1060    9.5952    1.2551 C.ar      1 <0>        -0.1200
     18 C12         3.1498   10.9377    0.9414 C.ar      1 <0>        -0.0003
     19 C13         1.9763   11.6580    0.8037 C.ar      1 <0>        -0.6514
     20 C14         0.7515   11.0372    0.9744 C.ar      1 <0>        -0.0347
     21 C15         0.6924    9.6940    1.2825 C.ar      1 <0>        -0.1128
     22 S1          2.0421   13.3741    0.4096 S.o2      1 <0>         2.6736
     23 O4          3.2889   13.5952   -0.2354 O.2       1 <0>        -0.8939
     24 O5          0.8006   13.6985   -0.2008 O.2       1 <0>        -0.9780
     25 N4          2.0965   14.2036    1.8418 N.pl3     1 <0>        -0.9756
     26 C16         0.8672   14.4638    2.6033 C.3       1 <0>         0.1211
     27 C17         1.0581   13.9564    4.0361 C.3       1 <0>        -0.1332
     28 C18         2.3149   14.5921    4.6350 C.3       1 <0>        -0.1153
     29 C19         3.5378   14.1830    3.8107 C.3       1 <0>        -0.1173
     30 C20         3.3757   14.6881    2.3782 C.3       1 <0>         0.1066
     31 H1          3.3839   15.7781    2.3749 H         1 <0>         0.0749
     32 C21         4.5081   14.1689    1.5303 C.2       1 <0>         0.4766
     33 O6          4.7641   12.9881    1.5215 O.co2     1 <0>        -0.6361
     34 H2          3.3780    6.3173    0.9370 H         1 <0>         0.0926
     35 H3          3.8861    7.3927    2.2612 H         1 <0>         0.0990
     36 H4          2.9395    5.9281    2.6176 H         1 <0>         0.0670
     37 H5          1.4396    5.0667    2.3219 H         1 <0>         0.3840
     38 H6          1.5086    3.2768    2.7284 H         1 <0>         0.1449
     39 H7          1.4055    0.8821    3.2788 H         1 <0>         0.1587
     40 H8         -0.7716   -0.2229    3.5816 H         1 <0>         0.1617
     41 H9         -2.7765    3.4550    2.7882 H         1 <0>         0.1703
     42 H10         4.0227    9.0352    1.3664 H         1 <0>         0.1346
     43 H11         4.1022   11.4287    0.8068 H         1 <0>         0.1922
     44 H12        -0.1603   11.6056    0.8657 H         1 <0>         0.1362
     45 H13        -0.2642    9.2108    1.4155 H         1 <0>         0.1373
     46 H14         0.6668   15.5351    2.6187 H         1 <0>         0.0707
     47 H15         0.0313   13.9423    2.1371 H         1 <0>         0.0794
     48 H16         0.1907   14.2291    4.6373 H         1 <0>         0.0683
     49 H17         1.1682   12.8720    4.0264 H         1 <0>         0.0651
     50 H18         2.2145   15.6774    4.6216 H         1 <0>         0.0606
     51 H19         2.4394   14.2517    5.6629 H         1 <0>         0.0581
     52 H20         4.4353   14.6170    4.2514 H         1 <0>         0.0675
     53 H21         3.6248   13.0965    3.8036 H         1 <0>         0.0718
     54 O7          5.2325   15.0181    0.7848 O.co2     1 <0>        -0.7352
@<TRIPOS>BOND
     1    1    2 1
     2    1   34 1
     3    1   35 1
     4    1   36 1
     5    2    3 2
     6    2   16 1
     7    3    4 1
     8    4    5 am
     9    4   37 1
    10    5    6 2
    11    5    7 1
    12    7   12 ar
    13    7    8 ar
    14    8    9 ar
    15    8   38 1
    16    9   10 ar
    17    9   39 1
    18   10   11 ar
    19   10   40 1
    20   11   12 ar
    21   11   13 1
    22   12   41 1
    23   13   14 2
    24   13   15 1
    25   16   21 ar
    26   16   17 ar
    27   17   18 ar
    28   17   42 1
    29   18   19 ar
    30   18   43 1
    31   19   20 ar
    32   19   22 1
    33   20   21 ar
    34   20   44 1
    35   21   45 1
    36   22   23 2
    37   22   24 2
    38   22   25 1
    39   25   30 1
    40   25   26 1
    41   26   27 1
    42   26   46 1
    43   26   47 1
    44   27   28 1
    45   27   48 1
    46   27   49 1
    47   28   29 1
    48   28   50 1
    49   28   51 1
    50   29   30 1
    51   29   52 1
    52   29   53 1
    53   30   31 1
    54   30   32 1
    55   32   33 2
    56   32   54 1
@<TRIPOS>MOLECULE
ZINC20371082
   56    59     0     0     0
SMALL
USER_CHARGES
(3S)-1-(4-acetamidophenyl)-5-oxo-N-[4-(pyrimidin-2-ylsulfamoyl)phenyl]pyrrolidine-3-carboxamide
@<TRIPOS>ATOM
      1 C1         -8.1104    3.7638    4.5491 C.3       1 <0>        -0.1711
      2 C2         -7.1634    3.3118    3.4675 C.2       1 <0>         0.5100
      3 O1         -7.5790    2.6664    2.5284 O.2       1 <0>        -0.5346
      4 N1         -5.8547    3.6247    3.5436 N.am      1 <0>        -0.6836
      5 C3         -4.9583    3.1239    2.5909 C.ar      1 <0>         0.1181
      6 C4         -3.6642    2.7864    2.9651 C.ar      1 <0>        -0.1153
      7 C5         -2.7806    2.2932    2.0262 C.ar      1 <0>        -0.1393
      8 C6         -3.1859    2.1341    0.7075 C.ar      1 <0>         0.1554
      9 C7         -4.4784    2.4765    0.3322 C.ar      1 <0>        -0.1352
     10 C8         -5.3637    2.9643    1.2723 C.ar      1 <0>        -0.0931
     11 N2         -2.2894    1.6336   -0.2453 N.am      1 <0>        -0.5531
     12 C9         -2.6155    1.4274   -1.6613 C.3       1 <0>         0.1093
     13 C10        -1.2557    1.2960   -2.3825 C.3       1 <0>        -0.1208
     14 H1         -1.2705    0.6546   -3.2760 H         1 <0>         0.1376
     15 C11        -0.3409    0.7939   -1.2414 C.3       1 <0>        -0.1449
     16 C12        -1.0166    1.2809    0.0214 C.2       1 <0>         0.5209
     17 O2         -0.4891    1.3431    1.1119 O.2       1 <0>        -0.5050
     18 C13        -0.7884    2.6320   -2.9000 C.2       1 <0>         0.5082
     19 O3         -1.5143    3.6005   -2.8211 O.2       1 <0>        -0.5096
     20 N3          0.4360    2.7506   -3.4506 N.am      1 <0>        -0.6809
     21 C14         0.8332    3.9664   -4.0181 C.ar      1 <0>         0.1725
     22 C15         1.6513    3.9762   -5.1402 C.ar      1 <0>        -0.1784
     23 C16         2.0380    5.1779   -5.7006 C.ar      1 <0>         0.0279
     24 C17         1.6196    6.3705   -5.1395 C.ar      1 <0>        -0.6611
     25 C18         0.8089    6.3642   -4.0193 C.ar      1 <0>        -0.0121
     26 C19         0.4148    5.1658   -3.4570 C.ar      1 <0>        -0.1538
     27 S1          2.1202    7.9014   -5.8538 S.o2      1 <0>         2.6259
     28 O4          2.4282    7.6331   -7.2148 O.2       1 <0>        -1.0220
     29 O5          1.1506    8.8659   -5.4679 O.2       1 <0>        -0.9951
     30 N4          3.5408    8.3406   -5.1248 N.2       1 <0>        -1.0111
     31 C20         4.6755    7.5673   -5.2980 C.ar      1 <0>         0.5841
     32 N5          4.5539    6.3398   -5.7817 N.ar      1 <0>        -0.6111
     33 C21         5.6187    5.5766   -5.9647 C.ar      1 <0>         0.1836
     34 C22         6.8703    6.0715   -5.6332 C.ar      1 <0>        -0.3393
     35 C23         6.9608    7.3576   -5.1244 C.ar      1 <0>         0.1772
     36 N6          5.8569    8.0701   -4.9713 N.ar      1 <0>        -0.5504
     37 H2         -7.5542    4.3314    5.3097 H         1 <0>         0.0786
     38 H3         -8.5789    2.8853    5.0169 H         1 <0>         0.0976
     39 H4         -8.8893    4.4046    4.1102 H         1 <0>         0.0977
     40 H5         -5.4905    4.2734    4.3539 H         1 <0>         0.4339
     41 H6         -3.3490    2.9101    3.9907 H         1 <0>         0.1291
     42 H7         -1.7740    2.0314    2.3170 H         1 <0>         0.1586
     43 H8         -4.7922    2.3570   -0.6943 H         1 <0>         0.1293
     44 H9         -6.3702    3.2265    0.9814 H         1 <0>         0.1417
     45 H10        -3.2178    0.5133   -1.7695 H         1 <0>         0.0938
     46 H11        -3.1871    2.2896   -2.0353 H         1 <0>         0.1084
     47 H12        -0.2781   -0.3037   -1.2778 H         1 <0>         0.1265
     48 H13         0.6648    1.2229   -1.3620 H         1 <0>         0.1135
     49 H14         1.1231    1.8916   -3.4539 H         1 <0>         0.4321
     50 H15         1.9816    3.0451   -5.5765 H         1 <0>         0.1231
     51 H16         2.6711    5.1861   -6.5755 H         1 <0>         0.1472
     52 H17         0.4839    7.2973   -3.5834 H         1 <0>         0.1333
     53 H18        -0.2178    5.1616   -2.5817 H         1 <0>         0.1337
     54 H19         5.5137    4.5783   -6.3631 H         1 <0>         0.1430
     55 H20         7.7557    5.4682   -5.7687 H         1 <0>         0.1219
     56 H21         7.9211    7.7731   -4.8566 H         1 <0>         0.1471
@<TRIPOS>BOND
     1    1    2 1
     2    1   37 1
     3    1   38 1
     4    1   39 1
     5    2    3 2
     6    2    4 am
     7    4    5 1
     8    4   40 1
     9    5   10 ar
    10    5    6 ar
    11    6    7 ar
    12    6   41 1
    13    7    8 ar
    14    7   42 1
    15    8    9 ar
    16    8   11 1
    17    9   10 ar
    18    9   43 1
    19   10   44 1
    20   11   16 am
    21   11   12 1
    22   12   13 1
    23   12   45 1
    24   12   46 1
    25   13   14 1
    26   13   15 1
    27   13   18 1
    28   15   16 1
    29   15   47 1
    30   15   48 1
    31   16   17 2
    32   18   19 2
    33   18   20 am
    34   20   21 1
    35   20   49 1
    36   21   26 ar
    37   21   22 ar
    38   22   23 ar
    39   22   50 1
    40   23   24 ar
    41   23   51 1
    42   24   25 ar
    43   24   27 1
    44   25   26 ar
    45   25   52 1
    46   26   53 1
    47   27   28 2
    48   27   29 2
    49   27   30 1
    50   30   31 1
    51   31   36 ar
    52   31   32 ar
    53   32   33 ar
    54   33   34 ar
    55   33   54 1
    56   34   35 ar
    57   34   55 1
    58   35   36 ar
    59   35   56 1
@<TRIPOS>MOLECULE
ZINC35057336
   61    64     0     0     0
SMALL
USER_CHARGES

@<TRIPOS>ATOM
      1 C1          0.5715    1.0987    0.1856 C.3       1 <0>        -0.1240
      2 C2         -0.5651    0.0752    0.2240 C.3       1 <0>         0.0274
      3 H1         -1.4162    0.4560   -0.3404 H         1 <0>         0.0482
      4 C3         -0.9771   -0.1645    1.6537 C.2       1 <0>         0.4881
      5 O1         -1.4954    0.7320    2.2972 O.co2     1 <0>        -0.7077
      6 O2         -0.7921   -1.2550    2.1668 O.co2     1 <0>        -0.6712
      7 O3         -0.1201   -1.1528   -0.3557 O.3       1 <0>        -0.3056
      8 C4         -0.9961   -1.6737   -1.3573 C.3       1 <0>         0.0855
      9 H2         -2.0172   -1.3502   -1.1552 H         1 <0>         0.0755
     10 C5         -0.9305   -3.2061   -1.3532 C.3       1 <0>         0.1459
     11 H3         -1.6441   -3.6016   -2.0761 H         1 <0>         0.1167
     12 C6          0.4805   -3.6622   -1.7288 C.3       1 <0>         0.2343
     13 H4          0.5054   -4.7504   -1.7867 H         1 <0>         0.1157
     14 O4          0.8524   -3.1104   -2.9961 O.3       1 <0>        -0.3721
     15 C7          0.8629   -1.6848   -3.0104 C.3       1 <0>         0.0332
     16 H5          1.5371   -1.3191   -2.2358 H         1 <0>         0.1009
     17 C8         -0.5604   -1.1702   -2.7334 C.3       1 <0>         0.0387
     18 H6         -1.2397   -1.5561   -3.4934 H         1 <0>         0.0824
     19 O5         -0.5525    0.2563   -2.7816 O.3       1 <0>        -0.3478
     20 C9         -0.1197    0.7725   -4.0453 C.3       1 <0>         0.3320
     21 H7         -0.1059    1.8617   -4.0053 H         1 <0>         0.1684
     22 O6          1.1911    0.2930   -4.3485 O.3       1 <0>        -0.3646
     23 C10         1.3112   -1.1480   -4.3704 C.3       1 <0>         0.0693
     24 C11        -1.0744    0.3241   -5.1217 C.2       1 <0>        -0.0822
     25 C12        -0.9773    0.6166   -6.4310 C.2       1 <0>        -0.1791
     26 C13        -2.0750   -0.0028   -7.0716 C.2       1 <0>        -0.2189
     27 C14        -2.7771   -0.6368   -6.1154 C.2       1 <0>        -0.0327
     28 O7         -2.1632   -0.4402   -4.9372 O.3       1 <0>        -0.1606
     29 O8          1.4032   -3.2192   -0.7317 O.3       1 <0>        -0.2518
     30 C15         2.6574   -3.7323   -0.7821 C.ar      1 <0>         0.1808
     31 C16         3.0217   -4.5823   -1.8157 C.ar      1 <0>        -0.2152
     32 C17         4.2987   -5.1044   -1.8656 C.ar      1 <0>        -0.0597
     33 C18         5.2269   -4.7856   -0.8865 C.ar      1 <0>        -0.1761
     34 C19         4.8852   -3.9437    0.1479 C.ar      1 <0>        -0.0493
     35 C20         3.5958   -3.4012    0.2089 C.ar      1 <0>        -0.1896
     36 C21         3.2255   -2.4975    1.3047 C.2       1 <0>         0.3522
     37 O9          2.1381   -1.9599    1.3063 O.2       1 <0>        -0.3659
     38 C22         4.1962   -2.2377    2.4278 C.3       1 <0>        -0.1937
     39 N1         -1.2636   -3.7047   -0.0166 N.am      1 <0>        -0.7004
     40 C23        -1.7471   -4.9535    0.1357 C.2       1 <0>         0.5121
     41 O10        -1.9065   -5.6645   -0.8339 O.2       1 <0>        -0.5696
     42 C24        -2.0897   -5.4664    1.5107 C.3       1 <0>        -0.1717
     43 H8          1.4304    0.7085    0.7317 H         1 <0>         0.0521
     44 H9          0.8549    1.2883   -0.8497 H         1 <0>         0.0431
     45 H10         0.2391    2.0283    0.6474 H         1 <0>         0.0573
     46 H11         2.3474   -1.4318   -4.5539 H         1 <0>         0.1106
     47 H12         0.6736   -1.5561   -5.1547 H         1 <0>         0.0660
     48 H13        -0.2087    1.2112   -6.9024 H         1 <0>         0.1516
     49 H14        -2.3056    0.0275   -8.1263 H         1 <0>         0.1497
     50 H15        -3.6793   -1.2102   -6.2696 H         1 <0>         0.2033
     51 H16         2.3050   -4.8365   -2.5827 H         1 <0>         0.1348
     52 H17         4.5764   -5.7661   -2.6727 H         1 <0>         0.1230
     53 H18         6.2230   -5.2001   -0.9352 H         1 <0>         0.1234
     54 H19         5.6117   -3.6990    0.9087 H         1 <0>         0.1354
     55 H20         5.1118   -2.8033    2.2548 H         1 <0>         0.0709
     56 H21         4.4286   -1.1735    2.4682 H         1 <0>         0.0858
     57 H22         3.7502   -2.5484    3.3727 H         1 <0>         0.0878
     58 H23        -1.1361   -3.1361    0.7589 H         1 <0>         0.4378
     59 H24        -3.1298   -5.2321    1.7371 H         1 <0>         0.0931
     60 H25        -1.9454   -6.5464    1.5420 H         1 <0>         0.0888
     61 H26        -1.4416   -4.9917    2.2474 H         1 <0>         0.0876
@<TRIPOS>BOND
     1    1    2 1
     2    1   43 1
     3    1   44 1
     4    1   45 1
     5    2    3 1
     6    2    4 1
     7    2    7 1
     8    4    5 2
     9    4    6 1
    10    7    8 1
    11    8    9 1
    12    8   17 1
    13    8   10 1
    14   10   11 1
    15   10   12 1
    16   10   39 1
    17   12   13 1
    18   12   14 1
    19   12   29 1
    20   14   15 1
    21   15   16 1
    22   15   23 1
    23   15   17 1
    24   17   18 1
    25   17   19 1
    26   19   20 1
    27   20   21 1
    28   20   22 1
    29   20   24 1
    30   22   23 1
    31   23   46 1
    32   23   47 1
    33   24   28 1
    34   24   25 2
    35   25   26 1
    36   25   48 1
    37   26   27 2
    38   26   49 1
    39   27   28 1
    40   27   50 1
    41   29   30 1
    42   30   35 ar
    43   30   31 ar
    44   31   32 ar
    45   31   51 1
    46   32   33 ar
    47   32   52 1
    48   33   34 ar
    49   33   53 1
    50   34   35 ar
    51   34   54 1
    52   35   36 1
    53   36   37 2
    54   36   38 1
    55   38   55 1
    56   38   56 1
    57   38   57 1
    58   39   40 am
    59   39   58 1
    60   40   41 2
    61   40   42 1
    62   42   59 1
    63   42   60 1
    64   42   61 1
@<TRIPOS>MOLECULE
ZINC40111027
   64    67     0     0     0
SMALL
USER_CHARGES

@<TRIPOS>ATOM
      1 C1         -0.7625    1.3923   -1.0493 C.ar      1 <0>        -0.0961
      2 C2         -0.2300    2.1135   -2.0975 C.ar      1 <0>        -0.0348
      3 C3          0.3275    1.4568   -3.1806 C.ar      1 <0>        -0.6671
      4 C4          0.3554    0.0737   -3.2200 C.ar      1 <0>        -0.0366
      5 C5         -0.1736   -0.6598   -2.1785 C.ar      1 <0>        -0.0866
      6 C6         -0.7377   -0.0036   -1.0824 C.ar      1 <0>        -0.0763
      7 C7         -1.3062   -0.7833    0.0379 C.2       1 <0>         0.4986
      8 O1         -1.7330   -0.2105    1.0228 O.2       1 <0>        -0.4605
      9 C8         -1.3557   -2.2463   -0.0381 C.2       1 <0>        -0.5095
     10 C9         -2.4681   -3.0134   -0.1181 C.2       1 <0>         0.2693
     11 C10        -2.0731   -4.4368   -0.1756 C.2       1 <0>         0.5122
     12 O2         -2.8448   -5.3721   -0.2522 O.2       1 <0>        -0.5337
     13 N1         -0.7326   -4.5434   -0.1314 N.am      1 <0>        -0.6052
     14 C11        -0.1746   -3.1885   -0.0487 C.3       1 <0>         0.2672
     15 H1          0.4573   -2.9875   -0.9138 H         1 <0>         0.0836
     16 C12         0.6212   -3.0361    1.2218 C.ar      1 <0>        -0.0229
     17 C13         0.2387   -3.6920    2.3819 C.ar      1 <0>        -0.1515
     18 C14         0.9932   -3.5282    3.5282 C.ar      1 <0>         0.0936
     19 N2          2.0645   -2.7592    3.5265 N.ar      1 <0>        -0.4951
     20 C15         2.4578   -2.1205    2.4419 C.ar      1 <0>         0.0936
     21 C16         1.7567   -2.2412    1.2570 C.ar      1 <0>        -0.1658
     22 C17         0.0345   -5.7910   -0.1663 C.3       1 <0>         0.1387
     23 C18         0.3554   -6.1520   -1.6180 C.3       1 <0>         0.0447
     24 O3          1.2205   -5.1606   -2.1754 O.3       1 <0>        -0.3712
     25 C19         1.5834   -5.4043   -3.5359 C.3       1 <0>         0.0609
     26 C20         2.5057   -4.2862   -4.0258 C.3       1 <0>         0.0781
     27 O4          3.7327   -4.3260   -3.2944 O.3       1 <0>        -0.5645
     28 O5         -3.7392   -2.5511   -0.1414 O.3       1 <0>        -0.6485
     29 S1          1.0045    2.3859   -4.5160 S.o2      1 <0>         2.6909
     30 O6          0.9739    1.5390   -5.6566 O.2       1 <0>        -0.9565
     31 O7          0.3662    3.6552   -4.4923 O.2       1 <0>        -0.9568
     32 N3          2.6012    2.6525   -4.1671 N.pl3     1 <0>        -0.9966
     33 C21         3.0139    3.8441   -3.4131 C.3       1 <0>         0.1201
     34 C22         3.8538    3.4007   -2.2111 C.3       1 <0>        -0.1385
     35 C23         5.0155    2.5317   -2.6984 C.3       1 <0>        -0.1161
     36 C24         4.4651    1.2825   -3.3903 C.3       1 <0>        -0.1381
     37 C25         3.6315    1.6988   -4.6004 C.3       1 <0>         0.1204
     38 H2         -1.1936    1.9061   -0.2027 H         1 <0>         0.1397
     39 H3         -0.2485    3.1930   -2.0731 H         1 <0>         0.1383
     40 H4          0.7920   -0.4325   -4.0683 H         1 <0>         0.1372
     41 H5         -0.1518   -1.7391   -2.2108 H         1 <0>         0.1451
     42 H6         -0.6381   -4.3226    2.3898 H         1 <0>         0.1276
     43 H7          0.7019   -4.0357    4.4360 H         1 <0>         0.1498
     44 H8          3.3404   -1.4991    2.4790 H         1 <0>         0.1490
     45 H9          2.0867   -1.7195    0.3708 H         1 <0>         0.1282
     46 H10         0.9631   -5.6622    0.3899 H         1 <0>         0.0836
     47 H11        -0.5518   -6.5908    0.2860 H         1 <0>         0.0953
     48 H12         0.8481   -7.1238   -1.6504 H         1 <0>         0.0564
     49 H13        -0.5685   -6.1937   -2.1948 H         1 <0>         0.0546
     50 H14         2.1015   -6.3605   -3.6080 H         1 <0>         0.0524
     51 H15         0.6849   -5.4305   -4.1524 H         1 <0>         0.0617
     52 H16         2.7110   -4.4236   -5.0875 H         1 <0>         0.0583
     53 H17         2.0217   -3.3219   -3.8712 H         1 <0>         0.0564
     54 H18         4.3671   -3.6435   -3.5530 H         1 <0>         0.3761
     55 H19         3.6086    4.4945   -4.0545 H         1 <0>         0.0741
     56 H20         2.1309    4.3797   -3.0642 H         1 <0>         0.0904
     57 H21         4.2464    4.2785   -1.6980 H         1 <0>         0.0749
     58 H22         3.2320    2.8255   -1.5252 H         1 <0>         0.0707
     59 H23         5.6229    3.0995   -3.4034 H         1 <0>         0.0629
     60 H24         5.6289    2.2351   -1.8476 H         1 <0>         0.0649
     61 H25         5.2929    0.6528   -3.7164 H         1 <0>         0.0754
     62 H26         3.8376    0.7272   -2.6932 H         1 <0>         0.0708
     63 H27         3.1559    0.8194   -5.0346 H         1 <0>         0.0899
     64 H28         4.2777    2.1704   -5.3407 H         1 <0>         0.0734
@<TRIPOS>BOND
     1    1    6 ar
     2    1    2 ar
     3    1   38 1
     4    2    3 ar
     5    2   39 1
     6    3    4 ar
     7    3   29 1
     8    4    5 ar
     9    4   40 1
    10    5    6 ar
    11    5   41 1
    12    6    7 1
    13    7    8 2
    14    7    9 1
    15    9   14 1
    16    9   10 2
    17   10   11 1
    18   10   28 1
    19   11   12 2
    20   11   13 am
    21   13   14 1
    22   13   22 1
    23   14   15 1
    24   14   16 1
    25   16   21 ar
    26   16   17 ar
    27   17   18 ar
    28   17   42 1
    29   18   19 ar
    30   18   43 1
    31   19   20 ar
    32   20   21 ar
    33   20   44 1
    34   21   45 1
    35   22   23 1
    36   22   46 1
    37   22   47 1
    38   23   24 1
    39   23   48 1
    40   23   49 1
    41   24   25 1
    42   25   26 1
    43   25   50 1
    44   25   51 1
    45   26   27 1
    46   26   52 1
    47   26   53 1
    48   27   54 1
    49   29   30 2
    50   29   31 2
    51   29   32 1
    52   32   37 1
    53   32   33 1
    54   33   34 1
    55   33   55 1
    56   33   56 1
    57   34   35 1
    58   34   57 1
    59   34   58 1
    60   35   36 1
    61   35   59 1
    62   35   60 1
    63   36   37 1
    64   36   61 1
    65   36   62 1
    66   37   63 1
    67   37   64 1
@<TRIPOS>MOLECULE
ZINC09235413
   64    67     0     0     0
SMALL
USER_CHARGES

@<TRIPOS>ATOM
      1 C1          1.0825    1.4965   -0.8369 C.3       1 <0>        -0.0967
      2 C2         -0.2223    1.0215   -1.4225 C.2       1 <0>         0.0001
      3 C3         -0.4237   -0.1505   -2.1852 C.2       1 <0>        -0.2398
      4 C4         -1.7671   -0.1945   -2.5152 C.2       1 <0>         0.1472
      5 N1         -2.3677    0.8851   -1.9901 N.pl3     1 <0>        -0.5247
      6 H1         -3.3103    1.0990   -2.0719 H         1 <0>         0.4204
      7 C5         -1.4338    1.6388   -1.3116 C.2       1 <0>        -0.0797
      8 C6         -1.6970    2.8915   -0.5960 C.2       1 <0>         0.5379
      9 O1         -0.7889    3.4729   -0.0338 O.2       1 <0>        -0.4994
     10 O2         -2.9462    3.3988   -0.5616 O.3       1 <0>        -0.3634
     11 C7         -3.1301    4.6222    0.1536 C.3       1 <0>         0.0381
     12 C8         -2.4409   -1.2710   -3.3265 C.3       1 <0>        -0.1044
     13 C9          0.6033   -1.1401   -2.5590 C.2       1 <0>         0.5438
     14 O3          1.7416   -1.0222   -2.1442 O.2       1 <0>        -0.4769
     15 C10         0.2534   -2.2669   -3.4308 C.2       1 <0>        -0.5005
     16 C11         0.3687   -2.3107   -4.7779 C.2       1 <0>         0.2545
     17 C12        -0.0922   -3.6285   -5.2624 C.2       1 <0>         0.5101
     18 O4         -0.1115   -3.9757   -6.4266 O.2       1 <0>        -0.5336
     19 N2         -0.4869   -4.3873   -4.2238 N.am      1 <0>        -0.6139
     20 C13        -0.2991   -3.6044   -2.9966 C.3       1 <0>         0.2688
     21 H2         -1.2552   -3.4687   -2.4910 H         1 <0>         0.0720
     22 C14         0.6781   -4.2964   -2.0816 C.ar      1 <0>        -0.1204
     23 C15         0.4009   -4.4288   -0.7293 C.ar      1 <0>        -0.0747
     24 C16         1.3289   -5.0726    0.0744 C.ar      1 <0>        -0.1768
     25 C17         2.4915   -5.5576   -0.4946 C.ar      1 <0>         0.0868
     26 N3          2.7221   -5.4132   -1.7848 N.ar      1 <0>        -0.4835
     27 C18         1.8591   -4.8118   -2.5805 C.ar      1 <0>         0.1365
     28 C19        -1.0070   -5.7545   -4.3032 C.3       1 <0>         0.1402
     29 C20         0.1519   -6.7479   -4.1990 C.3       1 <0>        -0.1410
     30 C21        -0.3913   -8.1758   -4.2820 C.3       1 <0>         0.0619
     31 N4          0.7214   -9.1297   -4.1820 N.3       1 <0>        -0.5337
     32 C22         1.6068   -9.0308   -5.3515 C.3       1 <0>         0.0153
     33 C23         2.7818   -9.9969   -5.1783 C.3       1 <0>         0.0640
     34 O5          2.2788  -11.3225   -4.9904 O.3       1 <0>        -0.3884
     35 C24         1.4133  -11.4550   -3.8596 C.3       1 <0>         0.0643
     36 C25         0.2245  -10.5037   -4.0194 C.3       1 <0>         0.0183
     37 O6          0.8322   -1.3068   -5.5580 O.3       1 <0>        -0.6592
     38 H3          1.2049    1.0802    0.1630 H         1 <0>         0.0700
     39 H4          1.9062    1.1678   -1.4706 H         1 <0>         0.0830
     40 H5          1.0802    2.5850   -0.7796 H         1 <0>         0.0741
     41 H6         -2.8425    4.4808    1.1954 H         1 <0>         0.0600
     42 H7         -2.5102    5.4002   -0.2920 H         1 <0>         0.0604
     43 H8         -4.1777    4.9188    0.1029 H         1 <0>         0.0993
     44 H9         -2.6982   -2.1079   -2.6773 H         1 <0>         0.0812
     45 H10        -3.3477   -0.8705   -3.7797 H         1 <0>         0.0620
     46 H11        -1.7640   -1.6133   -4.1094 H         1 <0>         0.1144
     47 H12        -0.5161   -4.0394   -0.3123 H         1 <0>         0.1271
     48 H13         1.1460   -5.1934    1.1320 H         1 <0>         0.1266
     49 H14         3.2195   -6.0604    0.1247 H         1 <0>         0.1464
     50 H15         2.0803   -4.7170   -3.6333 H         1 <0>         0.1443
     51 H16        -1.7066   -5.9252   -3.4849 H         1 <0>         0.0735
     52 H17        -1.5201   -5.8933   -5.2548 H         1 <0>         0.0777
     53 H18         0.8515   -6.5772   -5.0173 H         1 <0>         0.0681
     54 H19         0.6650   -6.6091   -3.2474 H         1 <0>         0.0805
     55 H20        -1.0909   -8.3465   -3.4637 H         1 <0>         0.0745
     56 H21        -0.9044   -8.3146   -5.2336 H         1 <0>         0.0356
     57 H22         1.0508   -9.2917   -6.2520 H         1 <0>         0.0417
     58 H23         1.9833   -8.0116   -5.4378 H         1 <0>         0.0923
     59 H24         3.4102   -9.9688   -6.0684 H         1 <0>         0.0977
     60 H25         3.3689   -9.7036   -4.3080 H         1 <0>         0.0617
     61 H26         1.0522  -12.4814   -3.7960 H         1 <0>         0.0949
     62 H27         1.9607  -11.2041   -2.9510 H         1 <0>         0.0592
     63 H28        -0.4080  -10.5596   -3.1335 H         1 <0>         0.0839
     64 H29        -0.3536  -10.7881   -4.8987 H         1 <0>         0.0404
@<TRIPOS>BOND
     1    1    2 1
     2    1   38 1
     3    1   39 1
     4    1   40 1
     5    2    7 2
     6    2    3 1
     7    3    4 2
     8    3   13 1
     9    4    5 1
    10    4   12 1
    11    5    6 1
    12    5    7 1
    13    7    8 1
    14    8    9 2
    15    8   10 1
    16   10   11 1
    17   11   41 1
    18   11   42 1
    19   11   43 1
    20   12   44 1
    21   12   45 1
    22   12   46 1
    23   13   14 2
    24   13   15 1
    25   15   20 1
    26   15   16 2
    27   16   17 1
    28   16   37 1
    29   17   18 2
    30   17   19 am
    31   19   20 1
    32   19   28 1
    33   20   21 1
    34   20   22 1
    35   22   27 ar
    36   22   23 ar
    37   23   24 ar
    38   23   47 1
    39   24   25 ar
    40   24   48 1
    41   25   26 ar
    42   25   49 1
    43   26   27 ar
    44   27   50 1
    45   28   29 1
    46   28   51 1
    47   28   52 1
    48   29   30 1
    49   29   53 1
    50   29   54 1
    51   30   31 1
    52   30   55 1
    53   30   56 1
    54   31   36 1
    55   31   32 1
    56   32   33 1
    57   32   57 1
    58   32   58 1
    59   33   34 1
    60   33   59 1
    61   33   60 1
    62   34   35 1
    63   35   36 1
    64   35   61 1
    65   35   62 1
    66   36   63 1
    67   36   64 1
@<TRIPOS>MOLECULE
ZINC13277261
   29    29     0     0     0
SMALL
USER_CHARGES
4-[(4-hydroxy-4-oxo-butyl)amino]-3-nitro-benzoic acid
@<TRIPOS>ATOM
      1 C1          1.3621    0.0202    3.8261 C.ar      1 <0>         0.0183
      2 C2          0.9090    0.3948    2.5816 C.ar      1 <0>        -0.2172
      3 C3         -0.1723    1.2647    2.4685 C.ar      1 <0>         0.2790
      4 C4         -0.7933    1.7609    3.6117 C.ar      1 <0>        -0.1332
      5 C5         -0.3520    1.3890    4.8496 C.ar      1 <0>         0.0134
      6 C6          0.7334    0.5157    4.9730 C.ar      1 <0>        -0.1729
      7 C7          1.2134    0.1181    6.3085 C.2       1 <0>         0.5003
      8 O1          0.6661    0.5494    7.3041 O.co2     1 <0>        -0.6322
      9 N1         -1.9388    2.6898    3.4851 N.pl3     1 <0>         0.0456
     10 O2         -2.0655    3.6112    4.2715 O.2       1 <0>        -0.1683
     11 O3         -2.7546    2.5327    2.5945 O.3       1 <0>        -0.1908
     12 N2         -0.6293    1.6432    1.2114 N.pl3     1 <0>        -0.7249
     13 C8         -0.0602    1.0286    0.0095 C.3       1 <0>         0.1163
     14 C9         -0.7332    1.6176   -1.2320 C.3       1 <0>        -0.1100
     15 C10        -0.1388    0.9757   -2.4872 C.3       1 <0>        -0.1532
     16 C11        -0.8017    1.5558   -3.7100 C.2       1 <0>         0.4602
     17 O4         -1.6613    2.3963   -3.5898 O.co2     1 <0>        -0.6395
     18 H1          2.2009   -0.6541    3.9168 H         1 <0>         0.1470
     19 H2          1.3920    0.0147    1.6936 H         1 <0>         0.1410
     20 H3         -0.8390    1.7728    5.7339 H         1 <0>         0.1469
     21 H4         -1.3251    2.3142    1.1300 H         1 <0>         0.4085
     22 H5         -0.2281   -0.0480    0.0376 H         1 <0>         0.0658
     23 H6          1.0107    1.2285   -0.0285 H         1 <0>         0.0633
     24 H7         -1.8041    1.4178   -1.1940 H         1 <0>         0.0711
     25 H8         -0.5653    2.6942   -1.2601 H         1 <0>         0.0669
     26 H9          0.9320    1.1756   -2.5252 H         1 <0>         0.0661
     27 H10        -0.3068   -0.1009   -2.4591 H         1 <0>         0.0671
     28 O5          2.2591   -0.7238    6.4257 O.co2     1 <0>        -0.7550
     29 O6         -0.4372    1.1387   -4.9326 O.co2     1 <0>        -0.7795
@<TRIPOS>BOND
     1    1    6 ar
     2    1    2 ar
     3    1   18 1
     4    2    3 ar
     5    2   19 1
     6    3    4 ar
     7    3   12 1
     8    4    5 ar
     9    4    9 1
    10    5    6 ar
    11    5   20 1
    12    6    7 1
    13    7    8 2
    14    7   28 1
    15    9   10 2
    16    9   11 1
    17   12   13 1
    18   12   21 1
    19   13   14 1
    20   13   22 1
    21   13   23 1
    22   14   15 1
    23   14   24 1
    24   14   25 1
    25   15   16 1
    26   15   26 1
    27   15   27 1
    28   16   17 2
    29   16   29 1
@<TRIPOS>MOLECULE
ZINC22159406
   28    29     0     0     0
SMALL
USER_CHARGES
1-methyl-4-[(5-methylisoxazol-3-yl)sulfamoyl]pyrrole-2-carboxylic acid
@<TRIPOS>ATOM
      1 C1          5.6791    4.7773    5.4131 C.3       1 <0>        -0.0585
      2 C2          5.0751    5.1221    4.0761 C.2       1 <0>        -0.0749
      3 C3          4.3949    6.2479    3.7632 C.2       1 <0>        -0.2507
      4 C4          4.0498    6.0711    2.3962 C.2       1 <0>         0.3141
      5 N1          4.5319    4.9069    2.0460 N.2       1 <0>        -0.4567
      6 O1          5.1073    4.3718    2.9651 O.3       1 <0>         0.0638
      7 N2          3.3370    6.9557    1.5935 N.2       1 <0>        -1.0412
      8 S1          3.0289    6.5741    0.0118 S.o2      1 <0>         2.6397
      9 O2          4.2640    6.1559   -0.5531 O.2       1 <0>        -1.0352
     10 O3          2.2710    7.6495   -0.5251 O.2       1 <0>        -1.0210
     11 C5          1.9723    5.1642    0.0123 C.2       1 <0>        -0.7314
     12 C6          2.3827    3.8278    0.0059 C.2       1 <0>        -0.0579
     13 C7          1.2392    3.0553    0.0066 C.2       1 <0>        -0.0491
     14 N3          0.1614    3.9122    0.0215 N.pl3     1 <0>        -0.4141
     15 C8          0.6176    5.1823    0.0248 C.2       1 <0>         0.0694
     16 C9         -1.2476    3.5113    0.0328 C.3       1 <0>         0.0904
     17 C10         1.1824    1.5915   -0.0007 C.2       1 <0>         0.5252
     18 O4          2.2112    0.9431   -0.0140 O.co2     1 <0>        -0.6243
     19 O5         -0.0110    0.9628    0.0073 O.co2     1 <0>        -0.7758
     20 H1          5.4854    5.5937    6.1244 H         1 <0>         0.0751
     21 H2          6.7645    4.6390    5.3004 H         1 <0>         0.0687
     22 H3          5.2282    3.8476    5.7903 H         1 <0>         0.0701
     23 H4          4.1671    7.0872    4.4037 H         1 <0>         0.1461
     24 H5          3.4011    3.4683   -0.0007 H         1 <0>         0.1451
     25 H6          0.0022    6.0698    0.0353 H         1 <0>         0.1621
     26 H7         -1.8840    4.4085    0.0437 H         1 <0>         0.0647
     27 H8         -1.4498    2.9074    0.9297 H         1 <0>         0.0780
     28 H9         -1.4669    2.9170   -0.8665 H         1 <0>         0.0779
@<TRIPOS>BOND
     1    1    2 1
     2    1   20 1
     3    1   21 1
     4    1   22 1
     5    2    6 1
     6    2    3 2
     7    3    4 1
     8    3   23 1
     9    4    5 2
    10    4    7 1
    11    5    6 1
    12    7    8 1
    13    8    9 2
    14    8   10 2
    15    8   11 1
    16   11   15 2
    17   11   12 1
    18   12   13 2
    19   12   24 1
    20   13   14 1
    21   13   17 1
    22   14   15 1
    23   14   16 1
    24   15   25 1
    25   16   26 1
    26   16   27 1
    27   16   28 1
    28   17   18 2
    29   17   19 1
@<TRIPOS>MOLECULE
ZINC38058870
   27    28     0     0     0
SMALL
USER_CHARGES

@<TRIPOS>ATOM
      1 C1         -0.0166    1.3766    0.0096 C.ar      1 <0>        -0.0271
      2 C2          1.1707    2.0859    0.0021 C.ar      1 <0>        -0.2319
      3 C3          2.3799    1.4157   -0.0130 C.ar      1 <0>        -0.0131
      4 C4          2.4059    0.0347   -0.0206 C.ar      1 <0>        -0.1302
      5 C5          1.2154   -0.6807   -0.0131 C.ar      1 <0>         0.3303
      6 C6          0.0021   -0.0041    0.0020 C.ar      1 <0>        -0.2566
      7 N1          1.2380   -2.0772   -0.0212 N.2       1 <0>        -1.0288
      8 S1         -0.1825   -2.9284   -0.0122 S.o2      1 <0>         2.6557
      9 O1         -0.8018   -2.6717    1.2407 O.2       1 <0>        -1.0229
     10 O2         -0.8260   -2.6576   -1.2499 O.2       1 <0>        -1.0201
     11 C7          0.2357   -4.6400   -0.0260 C.2       1 <0>        -0.7935
     12 C8          0.4386   -5.4573    1.0387 C.2       1 <0>        -0.0466
     13 C9          0.7587   -6.7734    0.8185 C.2       1 <0>        -0.1680
     14 C10         0.8478   -7.1575   -0.5140 C.2       1 <0>        -0.1697
     15 S2          0.4671   -5.6349   -1.3597 S.3       1 <0>         0.2938
     16 C11         1.1560   -8.4294   -1.0588 C.2       1 <0>         0.5524
     17 O3          1.3889   -9.3743   -0.3148 O.co2     1 <0>        -0.6754
     18 O4          1.1895   -8.5837   -2.2736 O.co2     1 <0>        -0.6804
     19 N2          3.7008   -0.6819   -0.0373 N.pl3     1 <0>         0.0611
     20 O5          4.7366   -0.0584   -0.0442 O.2       1 <0>        -0.2719
     21 O6          3.7227   -1.8906   -0.0439 O.3       1 <0>        -0.1146
     22 H1         -0.9594    1.9032    0.0259 H         1 <0>         0.1185
     23 H2          1.1532    3.1658    0.0077 H         1 <0>         0.1210
     24 H3          3.3052    1.9726   -0.0192 H         1 <0>         0.1304
     25 H4         -0.9254   -0.5574    0.0082 H         1 <0>         0.1170
     26 H5          0.3496   -5.0767    2.0455 H         1 <0>         0.1290
     27 H6          0.9307   -7.4662    1.6290 H         1 <0>         0.1415
@<TRIPOS>BOND
     1    1    6 ar
     2    1    2 ar
     3    1   22 1
     4    2    3 ar
     5    2   23 1
     6    3    4 ar
     7    3   24 1
     8    4    5 ar
     9    4   19 1
    10    5    6 ar
    11    5    7 1
    12    6   25 1
    13    7    8 1
    14    8    9 2
    15    8   10 2
    16    8   11 1
    17   11   15 1
    18   11   12 2
    19   12   13 1
    20   12   26 1
    21   13   14 2
    22   13   27 1
    23   14   15 1
    24   14   16 1
    25   16   17 2
    26   16   18 1
    27   19   20 2
    28   19   21 1
@<TRIPOS>MOLECULE
ZINC49048133
   29    30     0     0     0
SMALL
USER_CHARGES

@<TRIPOS>ATOM
      1 C1         -0.0187    1.5258    0.0104 C.3       1 <0>        -0.1019
      2 C2          0.0021   -0.0041    0.0020 C.3       1 <0>        -0.6128
      3 H1          0.5293   -0.3651    0.8851 H         1 <0>         0.1207
      4 C3         -1.4117   -0.5257    0.0127 C.2       1 <0>         0.5113
      5 O1         -2.3051    0.1240   -0.5032 O.co2     1 <0>        -0.6770
      6 O2         -1.6621   -1.5974    0.5373 O.co2     1 <0>        -0.6853
      7 S1          0.8511   -0.5891   -1.4904 S.o2      1 <0>         2.5503
      8 O3          1.0369   -1.9965   -1.4280 O.2       1 <0>        -1.0217
      9 O4          0.2851    0.0164   -2.6447 O.2       1 <0>        -1.0166
     10 N1          2.3780    0.0437   -1.3871 N.2       1 <0>        -1.0241
     11 C4          3.3129   -0.2165   -2.3952 C.ar      1 <0>         0.3509
     12 C5          2.9587   -1.0005   -3.4851 C.ar      1 <0>        -0.2270
     13 C6          3.8844   -1.2576   -4.4823 C.ar      1 <0>         0.1269
     14 C7          5.1698   -0.7287   -4.3897 C.ar      1 <0>        -0.0907
     15 C8          5.5191    0.0529   -3.3011 C.ar      1 <0>         0.0107
     16 C9          4.5928    0.3139   -2.3087 C.ar      1 <0>        -0.1389
     17 N2          4.9680    1.1546   -1.1498 N.pl3     1 <0>         0.0730
     18 O5          6.0825    1.6169   -1.0739 O.2       1 <0>        -0.2755
     19 O6          4.1598    1.3792   -0.2791 O.3       1 <0>        -0.1162
     20 O7          5.8835   -1.1235   -5.4859 O.3       1 <0>        -0.3125
     21 C10         5.1514   -2.2313   -6.0424 C.3       1 <0>         0.2131
     22 O8          3.7929   -1.9827   -5.6353 O.3       1 <0>        -0.3112
     23 H2          1.0039    1.9031    0.0027 H         1 <0>         0.0673
     24 H3         -0.5459    1.8868   -0.8726 H         1 <0>         0.0638
     25 H4         -0.5289    1.8773    0.9072 H         1 <0>         0.0504
     26 H5          1.9618   -1.4100   -3.5549 H         1 <0>         0.1350
     27 H6          6.5158    0.4626   -3.2294 H         1 <0>         0.1414
     28 H7          5.2307   -2.2354   -7.1295 H         1 <0>         0.1211
     29 H8          5.5091   -3.1738   -5.6277 H         1 <0>         0.0751
@<TRIPOS>BOND
     1    1    2 1
     2    1   23 1
     3    1   24 1
     4    1   25 1
     5    2    3 1
     6    2    4 1
     7    2    7 1
     8    4    5 2
     9    4    6 1
    10    7    8 2
    11    7    9 2
    12    7   10 1
    13   10   11 1
    14   11   16 ar
    15   11   12 ar
    16   12   13 ar
    17   12   26 1
    18   13   22 1
    19   13   14 ar
    20   14   15 ar
    21   14   20 1
    22   15   16 ar
    23   15   27 1
    24   16   17 1
    25   17   18 2
    26   17   19 1
    27   20   21 1
    28   21   22 1
    29   21   28 1
    30   21   29 1
@<TRIPOS>MOLECULE
ZINC63216409
   25    26     0     0     0
SMALL
USER_CHARGES

@<TRIPOS>ATOM
      1 C1         -0.0158    1.3120    0.0093 C.ar      1 <0>        -0.1024
      2 C2          1.1735    2.0305    0.0018 C.ar      1 <0>         0.0869
      3 N1          2.3331    1.4004   -0.0132 N.ar      1 <0>        -0.5809
      4 C3          2.3671    0.0721   -0.0206 C.ar      1 <0>         0.4134
      5 C4          1.1639   -0.6542   -0.0126 C.ar      1 <0>        -0.0123
      6 N2          0.0021   -0.0041    0.0020 N.ar      1 <0>        -0.3873
      7 C5          1.1882   -2.1280   -0.0212 C.2       1 <0>         0.5458
      8 O1          2.2573   -2.7221   -0.0355 O.co2     1 <0>        -0.6465
      9 O2          0.1391   -2.7570   -0.0142 O.co2     1 <0>        -0.7103
     10 N3          3.5784   -0.5914   -0.0367 N.2       1 <0>        -0.9684
     11 S1          4.9935    0.2687   -0.0467 S.o2      1 <0>         2.5908
     12 O3          5.0416    0.9571   -1.2889 O.2       1 <0>        -1.0224
     13 O4          5.0673    0.9437    1.2016 O.2       1 <0>        -1.0233
     14 C6          6.3128   -0.8990   -0.0666 C.ar      1 <0>        -0.6517
     15 C7          6.8469   -1.3749    1.1212 C.ar      1 <0>         0.0531
     16 C8          7.8846   -2.2932    1.0571 C.ar      1 <0>        -0.1710
     17 C9          8.3483   -2.7003   -0.1808 C.ar      1 <0>         0.1580
     18 N4          7.8156   -2.2258   -1.2896 N.ar      1 <0>        -0.4932
     19 C10         6.8243   -1.3562   -1.2661 C.ar      1 <0>         0.2076
     20 Br1         8.6557   -2.9791    2.6417 Br        1 <0>        -0.0470
     21 H1         -0.9599    1.8362    0.0256 H         1 <0>         0.1324
     22 H2          1.1488    3.1102    0.0078 H         1 <0>         0.1316
     23 H3          6.4644   -1.0384    2.0735 H         1 <0>         0.1564
     24 H4          9.1561   -3.4147   -0.2398 H         1 <0>         0.1632
     25 H5          6.4105   -0.9936   -2.1955 H         1 <0>         0.1776
@<TRIPOS>BOND
     1    1    6 ar
     2    1    2 ar
     3    1   21 1
     4    2    3 ar
     5    2   22 1
     6    3    4 ar
     7    4    5 ar
     8    4   10 1
     9    5    6 ar
    10    5    7 1
    11    7    8 2
    12    7    9 1
    13   10   11 1
    14   11   12 2
    15   11   13 2
    16   11   14 1
    17   14   19 ar
    18   14   15 ar
    19   15   16 ar
    20   15   23 1
    21   16   17 ar
    22   16   20 1
    23   17   18 ar
    24   17   24 1
    25   18   19 ar
    26   19   25 1
@<TRIPOS>MOLECULE
ZINC36975799
   41    41     0     0     0
SMALL
USER_CHARGES

@<TRIPOS>ATOM
      1 C1         -0.0187    1.5258    0.0104 C.3       1 <0>        -0.1277
      2 C2          0.0021   -0.0041    0.0020 C.3       1 <0>        -0.0870
      3 C3          0.7421   -0.5109    1.2415 C.3       1 <0>        -0.1407
      4 C4         -1.4333   -0.5336    0.0129 C.3       1 <0>        -0.1397
      5 C5          0.7074   -0.4901   -1.2379 C.2       1 <0>         0.5185
      6 O1          1.1500    0.3085   -2.0362 O.2       1 <0>        -0.5339
      7 N1          0.8465   -1.8122   -1.4596 N.am      1 <0>        -0.7291
      8 C6          1.5322   -2.2846   -2.6649 C.3       1 <0>         0.1335
      9 C7          1.5530   -3.8145   -2.6733 C.3       1 <0>        -0.1430
     10 C8          2.2583   -4.3005   -3.9132 C.2       1 <0>         0.5305
     11 O2          2.7009   -3.5019   -4.7115 O.2       1 <0>        -0.5286
     12 N2          2.3974   -5.6226   -4.1349 N.am      1 <0>        -0.5837
     13 C9          1.9043   -6.6979   -3.2551 C.3       1 <0>         0.0730
     14 C10         1.7407   -7.9266   -4.1841 C.3       1 <0>         0.0875
     15 H1          1.8099   -8.8559   -3.6186 H         1 <0>         0.0768
     16 C11         2.9559   -7.7624   -5.1348 C.3       1 <0>        -0.1022
     17 C12         3.0603   -6.2314   -5.2974 C.3       1 <0>         0.0712
     18 H2          2.5609   -5.9192   -6.2146 H         1 <0>         0.0703
     19 C13         4.5097   -5.8203   -5.3343 C.2       1 <0>         0.4980
     20 O3          5.1024   -5.5819   -4.2959 O.co2     1 <0>        -0.6875
     21 O4          5.0897   -5.7262   -6.4027 O.co2     1 <0>        -0.6944
     22 O5          0.5105   -7.8612   -4.9081 O.3       1 <0>        -0.5538
     23 H3          1.0039    1.9031    0.0027 H         1 <0>         0.0625
     24 H4         -0.5459    1.8868   -0.8726 H         1 <0>         0.0619
     25 H5         -0.5289    1.8773    0.9072 H         1 <0>         0.0600
     26 H6          0.2319   -0.1594    2.1383 H         1 <0>         0.0673
     27 H7          0.7568   -1.6008    1.2356 H         1 <0>         0.0598
     28 H8          1.7647   -0.1336    1.2338 H         1 <0>         0.0621
     29 H9         -1.9605   -0.1726   -0.8702 H         1 <0>         0.0611
     30 H10        -1.4185   -1.6235    0.0069 H         1 <0>         0.0593
     31 H11        -1.9435   -0.1821    0.9097 H         1 <0>         0.0673
     32 H12         0.4926   -2.4509   -0.8211 H         1 <0>         0.3966
     33 H13         1.0050   -1.9236   -3.5480 H         1 <0>         0.0768
     34 H14         2.5548   -1.9074   -2.6726 H         1 <0>         0.0797
     35 H15         2.0801   -4.1755   -1.7903 H         1 <0>         0.0953
     36 H16         0.5304   -4.1918   -2.6656 H         1 <0>         0.0907
     37 H17         2.6310   -6.9094   -2.4707 H         1 <0>         0.0765
     38 H18         0.9443   -6.4212   -2.8194 H         1 <0>         0.0702
     39 H19         3.8593   -8.1680   -4.6795 H         1 <0>         0.0886
     40 H20         2.7605   -8.2375   -6.0961 H         1 <0>         0.0844
     41 H21        -0.2768   -7.8618   -4.3467 H         1 <0>         0.3718
@<TRIPOS>BOND
     1    1    2 1
     2    1   23 1
     3    1   24 1
     4    1   25 1
     5    2    3 1
     6    2    4 1
     7    2    5 1
     8    3   26 1
     9    3   27 1
    10    3   28 1
    11    4   29 1
    12    4   30 1
    13    4   31 1
    14    5    6 2
    15    5    7 am
    16    7    8 1
    17    7   32 1
    18    8    9 1
    19    8   33 1
    20    8   34 1
    21    9   10 1
    22    9   35 1
    23    9   36 1
    24   10   11 2
    25   10   12 am
    26   12   17 1
    27   12   13 1
    28   13   14 1
    29   13   37 1
    30   13   38 1
    31   14   15 1
    32   14   16 1
    33   14   22 1
    34   16   17 1
    35   16   39 1
    36   16   40 1
    37   17   18 1
    38   17   19 1
    39   19   20 2
    40   19   21 1
    41   22   41 1
@<TRIPOS>MOLECULE
ZINC40557584
   35    36     0     0     0
SMALL
USER_CHARGES

@<TRIPOS>ATOM
      1 C1         -0.0188    1.5368    0.0105 C.3       1 <0>        -0.1551
      2 C2          1.4767    1.9366   -0.0016 C.3       1 <0>        -0.1468
      3 C3          2.1612    0.6496    0.5251 C.3       1 <0>         0.0653
      4 H1          2.1118    0.6064    1.6131 H         1 <0>         0.0742
      5 O1          1.3788   -0.4124   -0.0619 O.3       1 <0>        -0.3667
      6 C4          0.0021   -0.0041    0.0020 C.3       1 <0>         0.0452
      7 C5          3.6139    0.5790    0.0502 C.3       1 <0>         0.1502
      8 N1          4.2358   -0.6450    0.5615 N.am      1 <0>        -0.7498
      9 C6          5.5222   -0.9204    0.2684 C.2       1 <0>         0.7315
     10 O2          6.1665   -0.1530   -0.4204 O.2       1 <0>        -0.5696
     11 N2          6.0944   -2.0464    0.7387 N.am      1 <0>        -0.6061
     12 C7          5.4306   -3.0625    1.5755 C.3       1 <0>         0.0749
     13 C8          6.5834   -3.7661    2.3342 C.3       1 <0>         0.0884
     14 H2          6.8959   -3.1813    3.1994 H         1 <0>         0.0712
     15 C9          7.6953   -3.7966    1.2525 C.3       1 <0>        -0.0952
     16 C10         7.4820   -2.4678    0.4970 C.3       1 <0>         0.0847
     17 H3          8.1702   -1.7129    0.8770 H         1 <0>         0.0690
     18 C11         7.7056   -2.6729   -0.9791 C.2       1 <0>         0.4943
     19 O3          6.8007   -2.4603   -1.7681 O.co2     1 <0>        -0.6700
     20 O4          8.7914   -3.0513   -1.3844 O.co2     1 <0>        -0.7032
     21 O5          6.2088   -5.0894    2.7222 O.3       1 <0>        -0.5549
     22 H4         -0.5053    1.9068    0.9130 H         1 <0>         0.0739
     23 H5         -0.5224    1.9164   -0.8785 H         1 <0>         0.0776
     24 H6          1.8093    2.1678   -1.0136 H         1 <0>         0.0838
     25 H7          1.6602    2.7768    0.6681 H         1 <0>         0.0829
     26 H8         -0.4558   -0.3860    0.9145 H         1 <0>         0.0565
     27 H9         -0.5361   -0.3772   -0.8693 H         1 <0>         0.0831
     28 H10         3.6400    0.5719   -1.0395 H         1 <0>         0.0730
     29 H11         4.1600    1.4463    0.4211 H         1 <0>         0.0760
     30 H12         3.7218   -1.2572    1.1110 H         1 <0>         0.3906
     31 H13         4.7476   -2.5871    2.2795 H         1 <0>         0.0633
     32 H14         4.8955   -3.7778    0.9508 H         1 <0>         0.0700
     33 H15         8.6821   -3.8261    1.7145 H         1 <0>         0.0819
     34 H16         7.5571   -4.6442    0.5813 H         1 <0>         0.0829
     35 H17         5.4521   -5.1236    3.3234 H         1 <0>         0.3730
@<TRIPOS>BOND
     1    1    6 1
     2    1    2 1
     3    1   22 1
     4    1   23 1
     5    2    3 1
     6    2   24 1
     7    2   25 1
     8    3    4 1
     9    3    5 1
    10    3    7 1
    11    5    6 1
    12    6   26 1
    13    6   27 1
    14    7    8 1
    15    7   28 1
    16    7   29 1
    17    8    9 am
    18    8   30 1
    19    9   10 2
    20    9   11 am
    21   11   16 1
    22   11   12 1
    23   12   13 1
    24   12   31 1
    25   12   32 1
    26   13   14 1
    27   13   15 1
    28   13   21 1
    29   15   16 1
    30   15   33 1
    31   15   34 1
    32   16   17 1
    33   16   18 1
    34   18   19 2
    35   18   20 1
    36   21   35 1
@<TRIPOS>MOLECULE
ZINC42439457
   38    39     0     0     0
SMALL
USER_CHARGES

@<TRIPOS>ATOM
      1 C1          0.3961    1.6437    0.6581 C.3       1 <0>        -0.1658
      2 C2          0.4105    0.1484    0.3344 C.3       1 <0>         0.0301
      3 H1          0.7646   -0.0013   -0.6856 H         1 <0>         0.2019
      4 C3         -1.0045   -0.4213    0.4757 C.3       1 <0>        -0.1252
      5 C4         -1.4428   -0.3309    1.9392 C.3       1 <0>        -0.0973
      6 C5         -0.4979   -1.1635    2.8087 C.3       1 <0>        -0.1236
      7 H2         -0.5085   -2.1991    2.4690 H         1 <0>         0.0983
      8 C6          0.9229   -0.6022    2.6940 C.3       1 <0>         0.1459
      9 N1          1.3003   -0.5500    1.2721 N.am      1 <0>        -0.6041
     10 C7          2.4355   -1.1321    0.8373 C.2       1 <0>         0.7435
     11 O1          3.2478   -1.5536    1.6378 O.2       1 <0>        -0.6086
     12 N2          2.6703   -1.2469   -0.4849 N.am      1 <0>        -0.6045
     13 C8          3.8199   -2.0175   -1.0068 C.3       1 <0>         0.2051
     14 S1          3.2462   -2.4016   -2.7201 S.3       1 <0>        -0.3252
     15 C9          2.2207   -0.8797   -2.9413 C.3       1 <0>        -0.0288
     16 C10         1.8038   -0.6250   -1.4718 C.3       1 <0>         0.0204
     17 H3          0.7903   -0.9990   -1.3270 H         1 <0>         0.0953
     18 C11         1.7966    0.8628   -1.2321 C.2       1 <0>         0.5051
     19 O2          2.6332    1.3668   -0.5023 O.co2     1 <0>        -0.6552
     20 O3          0.9542    1.5625   -1.7680 O.co2     1 <0>        -0.6798
     21 C12        -0.9497   -1.1007    4.2450 C.2       1 <0>         0.5283
     22 O4         -1.9309   -0.4538    4.5444 O.2       1 <0>        -0.5423
     23 N3         -0.2634   -1.7634    5.1970 N.am      1 <0>        -0.8563
     24 H4          1.4188    2.0201    0.6821 H         1 <0>         0.1019
     25 H5         -0.1691    2.1757   -0.1071 H         1 <0>         0.0737
     26 H6         -0.0716    1.8005    1.6301 H         1 <0>         0.0203
     27 H7         -1.6916    0.1528   -0.1460 H         1 <0>         0.0776
     28 H8         -1.0103   -1.4639    0.1579 H         1 <0>         0.0553
     29 H9         -1.4130    0.7092    2.2636 H         1 <0>         0.0752
     30 H10        -2.4588   -0.7130    2.0382 H         1 <0>         0.0652
     31 H11         0.9544    0.4018    3.1170 H         1 <0>         0.0663
     32 H12         1.6160   -1.2494    3.2315 H         1 <0>         0.0888
     33 H13         4.7244   -1.4095   -1.0234 H         1 <0>         0.0893
     34 H14         3.9737   -2.9302   -0.4311 H         1 <0>         0.1093
     35 H15         2.8146   -0.0559   -3.3373 H         1 <0>         0.1004
     36 H16         1.3512   -1.0756   -3.5687 H         1 <0>         0.1172
     37 H17         0.5214   -2.2809    4.9576 H         1 <0>         0.4032
     38 H18        -0.5542   -1.7230    6.1215 H         1 <0>         0.3987
@<TRIPOS>BOND
     1    1    2 1
     2    1   24 1
     3    1   25 1
     4    1   26 1
     5    2    3 1
     6    2    9 1
     7    2    4 1
     8    4    5 1
     9    4   27 1
    10    4   28 1
    11    5    6 1
    12    5   29 1
    13    5   30 1
    14    6    7 1
    15    6    8 1
    16    6   21 1
    17    8    9 1
    18    8   31 1
    19    8   32 1
    20    9   10 am
    21   10   11 2
    22   10   12 am
    23   12   16 1
    24   12   13 1
    25   13   14 1
    26   13   33 1
    27   13   34 1
    28   14   15 1
    29   15   16 1
    30   15   35 1
    31   15   36 1
    32   16   17 1
    33   16   18 1
    34   18   19 2
    35   18   20 1
    36   21   22 2
    37   21   23 am
    38   23   37 1
    39   23   38 1
@<TRIPOS>MOLECULE
ZINC49104609
   39    39     0     0     0
SMALL
USER_CHARGES

@<TRIPOS>ATOM
      1 C1         -0.0472    1.5007   -0.0019 C.3       1 <0>        -0.1548
      2 C2         -0.0032   -0.0286   -0.0039 C.3       1 <0>         0.1477
      3 H1         -1.0155   -0.4214    0.0920 H         1 <0>         0.1114
      4 C3          0.8336   -0.5086    1.1539 C.2       1 <0>         0.5163
      5 O1          2.0054   -0.7726    0.9868 O.2       1 <0>        -0.5376
      6 N1          0.2797   -0.6445    2.3751 N.am      1 <0>        -0.6198
      7 C4          1.1141   -1.0147    3.5209 C.3       1 <0>         0.0852
      8 C5         -1.1569   -0.4220    2.5567 C.3       1 <0>         0.0678
      9 N2          0.5859   -0.4986   -1.2601 N.am      1 <0>        -0.7429
     10 C6         -0.1883   -0.6483   -2.3531 C.2       1 <0>         0.7190
     11 O2         -1.3758   -0.3932   -2.2965 O.2       1 <0>        -0.5695
     12 N3          0.3537   -1.0806   -3.5088 N.am      1 <0>        -0.7160
     13 C7         -0.4879   -1.2433   -4.6969 C.3       1 <0>         0.1489
     14 C8         -1.1171    0.1021   -5.0643 C.3       1 <0>        -0.1397
     15 C9          0.3674   -1.7418   -5.8634 C.3       1 <0>        -0.1406
     16 C10         0.5073   -0.8240   -7.0796 C.3       1 <0>        -0.1962
     17 C11        -0.3512   -2.0873   -7.1693 C.3       1 <0>        -0.1532
     18 C12        -1.5764   -2.2447   -4.4082 C.2       1 <0>         0.5062
     19 O3         -1.6430   -2.7736   -3.3116 O.co2     1 <0>        -0.6759
     20 O4         -2.3905   -2.5261   -5.2711 O.co2     1 <0>        -0.6966
     21 H2          0.9696    1.8934   -0.0086 H         1 <0>         0.0592
     22 H3         -0.5774    1.8501   -0.8878 H         1 <0>         0.0780
     23 H4         -0.5650    1.8482    0.8921 H         1 <0>         0.0646
     24 H5          1.4992   -0.1126    3.9964 H         1 <0>         0.0536
     25 H6          0.5170   -1.5771    4.2386 H         1 <0>         0.0696
     26 H7          1.9471   -1.6296    3.1801 H         1 <0>         0.0768
     27 H8         -1.5903   -0.0651    1.6223 H         1 <0>         0.0880
     28 H9         -1.6359   -1.3576    2.8453 H         1 <0>         0.0648
     29 H10        -1.3135    0.3224    3.3374 H         1 <0>         0.0657
     30 H11         1.5333   -0.7021   -1.3053 H         1 <0>         0.3967
     31 H12         1.3010   -1.2841   -3.5540 H         1 <0>         0.3811
     32 H13        -0.3298    0.8265   -5.2731 H         1 <0>         0.0383
     33 H14        -1.7433   -0.0189   -5.9482 H         1 <0>         0.0614
     34 H15        -1.7264    0.4573   -4.2332 H         1 <0>         0.0698
     35 H16         1.2303   -2.3482   -5.5882 H         1 <0>         0.0937
     36 H17        -0.0099    0.1349   -7.0486 H         1 <0>         0.0966
     37 H18         1.4625   -0.8264   -7.6046 H         1 <0>         0.0814
     38 H19         0.0391   -2.9207   -7.7533 H         1 <0>         0.0816
     39 H20        -1.4333   -1.9594   -7.1973 H         1 <0>         0.1191
@<TRIPOS>BOND
     1    1    2 1
     2    1   21 1
     3    1   22 1
     4    1   23 1
     5    2    3 1
     6    2    4 1
     7    2    9 1
     8    4    5 2
     9    4    6 am
    10    6    7 1
    11    6    8 1
    12    7   24 1
    13    7   25 1
    14    7   26 1
    15    8   27 1
    16    8   28 1
    17    8   29 1
    18    9   10 am
    19    9   30 1
    20   10   11 2
    21   10   12 am
    22   12   13 1
    23   12   31 1
    24   13   14 1
    25   13   15 1
    26   13   18 1
    27   14   32 1
    28   14   33 1
    29   14   34 1
    30   15   17 1
    31   15   16 1
    32   15   35 1
    33   16   17 1
    34   16   36 1
    35   16   37 1
    36   17   38 1
    37   17   39 1
    38   18   19 2
    39   18   20 1
@<TRIPOS>MOLECULE
ZINC61173197
   42    42     0     0     0
SMALL
USER_CHARGES

@<TRIPOS>ATOM
      1 C1         -0.5125   -1.0943    0.3567 C.3       1 <0>        -0.2233
      2 C2         -0.1681    0.2448   -0.2985 C.3       1 <0>         0.0869
      3 N1          0.9097    0.0495   -1.2713 N.am      1 <0>        -0.6082
      4 C3          2.0641   -0.5324   -0.8903 C.2       1 <0>         0.7478
      5 O1          2.7374   -1.1367   -1.7026 O.2       1 <0>        -0.5704
      6 N2          2.4723   -0.4445    0.3912 N.am      1 <0>        -0.6362
      7 C4          1.4949   -0.3220    1.4814 C.3       1 <0>         0.0124
      8 C5          1.8509    0.9046    2.3272 C.3       1 <0>        -0.1374
      9 C6          3.3037    0.7924    2.7952 C.3       1 <0>        -0.1032
     10 C7          4.2320    0.7584    1.5789 C.3       1 <0>        -0.1271
     11 H1          4.0890    1.6623    0.9868 H         1 <0>         0.1106
     12 C8          3.9028   -0.4755    0.7250 C.3       1 <0>         0.1668
     13 C9          5.6642    0.6813    2.0413 C.2       1 <0>         0.5286
     14 O2          6.3560   -0.2610    1.7179 O.2       1 <0>        -0.5418
     15 N3          6.1765    1.6595    2.8141 N.am      1 <0>        -0.8573
     16 C10         0.7327    0.4868   -2.6582 C.3       1 <0>         0.1158
     17 C11         0.8698   -0.7161   -3.5937 C.3       1 <0>        -0.1448
     18 C12        -0.6563    1.1063   -2.8243 C.3       1 <0>        -0.1316
     19 C13         1.7838    1.5113   -3.0000 C.2       1 <0>         0.4981
     20 O3          2.6435    1.7981   -2.1844 O.co2     1 <0>        -0.6797
     21 O4          1.7745    2.0532   -4.0921 O.co2     1 <0>        -0.6973
     22 H2         -0.7515   -1.8257   -0.4153 H         1 <0>         0.0627
     23 H3          0.3407   -1.4447    0.9376 H         1 <0>         0.1004
     24 H4         -1.3721   -0.9664    1.0147 H         1 <0>         0.0705
     25 H5         -1.0489    0.6381   -0.8061 H         1 <0>         0.0906
     26 H6          0.1561    0.9507    0.4662 H         1 <0>         0.0721
     27 H7          0.4953   -0.2005    1.0640 H         1 <0>         0.1768
     28 H8          1.5272   -1.2166    2.1033 H         1 <0>         0.0547
     29 H9          1.7304    1.8071    1.7281 H         1 <0>         0.0724
     30 H10         1.1921    0.9523    3.1943 H         1 <0>         0.0705
     31 H11         3.5521    1.6519    3.4177 H         1 <0>         0.0627
     32 H12         3.4293   -0.1230    3.3735 H         1 <0>         0.0646
     33 H13         4.1274   -1.3823    1.2865 H         1 <0>         0.0609
     34 H14         4.4924   -0.4552   -0.1915 H         1 <0>         0.0914
     35 H15         5.6232    2.4131    3.0727 H         1 <0>         0.4004
     36 H16         7.0983    1.6098    3.1117 H         1 <0>         0.3980
     37 H17         0.1096   -1.4571   -3.3465 H         1 <0>         0.0339
     38 H18         0.7381   -0.3908   -4.6256 H         1 <0>         0.0553
     39 H19         1.8594   -1.1575   -3.4754 H         1 <0>         0.0827
     40 H20        -0.7540    1.9633   -2.1579 H         1 <0>         0.0511
     41 H21        -0.7880    1.4317   -3.8563 H         1 <0>         0.0727
     42 H22        -1.4166    0.3654   -2.5772 H         1 <0>         0.0468
@<TRIPOS>BOND
     1    1    2 1
     2    1   22 1
     3    1   23 1
     4    1   24 1
     5    2    3 1
     6    2   25 1
     7    2   26 1
     8    3    4 am
     9    3   16 1
    10    4    5 2
    11    4    6 am
    12    6   12 1
    13    6    7 1
    14    7    8 1
    15    7   27 1
    16    7   28 1
    17    8    9 1
    18    8   29 1
    19    8   30 1
    20    9   10 1
    21    9   31 1
    22    9   32 1
    23   10   11 1
    24   10   12 1
    25   10   13 1
    26   12   33 1
    27   12   34 1
    28   13   14 2
    29   13   15 am
    30   15   35 1
    31   15   36 1
    32   16   17 1
    33   16   18 1
    34   16   19 1
    35   17   37 1
    36   17   38 1
    37   17   39 1
    38   18   40 1
    39   18   41 1
    40   18   42 1
    41   19   20 2
    42   19   21 1
@<TRIPOS>MOLECULE
ZINC20759248
   36    37     0     0     0
SMALL
USER_CHARGES
(2R)-1-[[3-hydroxy-6-(hydroxymethyl)-4-oxo-pyran-2-yl]methyl]piperidine-2-carboxylic acid
@<TRIPOS>ATOM
      1 C1         -4.3923    6.0062   -0.5461 C.2       1 <0>        -0.3588
      2 C2         -5.0873    4.8699   -0.3361 C.2       1 <0>         0.1611
      3 O1         -4.7094    3.7165   -0.8987 O.3       1 <0>        -0.1808
      4 C3         -3.6259    3.6287   -1.6826 C.2       1 <0>        -0.2508
      5 C4         -2.8714    4.7180   -1.9465 C.2       1 <0>         0.1694
      6 C5         -3.2418    5.9657   -1.3727 C.2       1 <0>         0.3671
      7 O2         -2.5866    6.9744   -1.5867 O.2       1 <0>        -0.5024
      8 O3         -1.7758    4.6232   -2.7482 O.3       1 <0>        -0.6743
      9 C6         -3.2477    2.2990   -2.2825 C.3       1 <0>         0.1076
     10 N1         -2.3393    1.5910   -1.3705 N.4       1 <0>        -0.3701
     11 C7         -1.0609    2.3023   -1.2441 C.3       1 <0>         0.0081
     12 C8         -0.0909    1.4659   -0.4064 C.3       1 <0>        -0.1418
     13 C9         -0.6984    1.2213    0.9777 C.3       1 <0>        -0.1325
     14 C10        -2.0522    0.5229    0.8152 C.3       1 <0>        -0.1209
     15 C11        -2.9653    1.3866   -0.0580 C.3       1 <0>        -0.0080
     16 H1         -3.1213    2.3770    0.3945 H         1 <0>         0.1234
     17 C12        -4.2914    0.6935   -0.2366 C.2       1 <0>         0.4761
     18 O4         -4.4645   -0.0470   -1.1756 O.co2     1 <0>        -0.6290
     19 O5         -5.2804    0.8986    0.6475 O.co2     1 <0>        -0.7169
     20 C13        -6.3126    4.9011    0.5406 C.3       1 <0>         0.1334
     21 O6         -7.4637    5.1791   -0.2593 O.3       1 <0>        -0.5889
     22 H2         -4.7080    6.9336   -0.0914 H         1 <0>         0.1340
     23 H3         -4.1543    1.6959   -2.4383 H         1 <0>         0.1303
     24 H4         -2.7452    2.4617   -3.2474 H         1 <0>         0.1320
     25 H5         -0.6328    2.4675   -2.2438 H         1 <0>         0.1274
     26 H6         -1.2278    3.2718   -0.7519 H         1 <0>         0.1189
     27 H7          0.0877    0.5021   -0.9056 H         1 <0>         0.0768
     28 H8          0.8616    2.0059   -0.3002 H         1 <0>         0.0955
     29 H9         -0.0224    0.5849    1.5676 H         1 <0>         0.0788
     30 H10        -0.8380    2.1835    1.4921 H         1 <0>         0.0735
     31 H11        -1.9044   -0.4567    0.3371 H         1 <0>         0.0784
     32 H12        -2.5134    0.3825    1.8039 H         1 <0>         0.0991
     33 H13        -6.4356    3.9255    1.0336 H         1 <0>         0.0771
     34 H14        -6.1979    5.6855    1.3033 H         1 <0>         0.0738
     35 H15        -8.4570    5.2415    0.2092 H         1 <0>         0.4123
     36 H16        -2.1305    0.6002   -1.8002 H         1 <0>         0.4209
@<TRIPOS>BOND
     1    1    6 1
     2    1    2 2
     3    1   22 1
     4    2    3 1
     5    2   20 1
     6    3    4 1
     7    4    5 2
     8    4    9 1
     9    5    6 1
    10    5    8 1
    11    6    7 2
    12    9   10 1
    13    9   23 1
    14    9   24 1
    15   10   15 1
    16   10   11 1
    17   10   36 1
    18   11   12 1
    19   11   25 1
    20   11   26 1
    21   12   13 1
    22   12   27 1
    23   12   28 1
    24   13   14 1
    25   13   29 1
    26   13   30 1
    27   14   15 1
    28   14   31 1
    29   14   32 1
    30   15   16 1
    31   15   17 1
    32   17   18 2
    33   17   19 1
    34   20   21 1
    35   20   33 1
    36   20   34 1
    37   21   35 1
@<TRIPOS>MOLECULE
ZINC37451441
   35    35     0     0     0
SMALL
USER_CHARGES

@<TRIPOS>ATOM
      1 C1         -0.0184    1.5028    0.0103 C.3       1 <0>        -0.1716
      2 C2          0.0021   -0.0041    0.0020 C.2       1 <0>         0.5084
      3 O1          1.0605   -0.5961   -0.0113 O.2       1 <0>        -0.5435
      4 N1         -1.1558   -0.6938    0.0094 N.am      1 <0>        -0.6119
      5 C3         -2.4459    0.0093    0.0193 C.3       1 <0>         0.1040
      6 C4         -3.2826   -0.5121    1.1918 C.3       1 <0>        -0.1335
      7 C5         -3.3975   -2.0350    1.0938 C.3       1 <0>        -0.1003
      8 C6         -2.0032   -2.6601    1.1798 C.3       1 <0>        -0.1159
      9 H1         -1.5323   -2.3712    2.1194 H         1 <0>         0.0927
     10 C7         -1.1521   -2.1630    0.0014 C.3       1 <0>         0.1219
     11 C8         -2.1202   -4.1612    1.1165 C.2       1 <0>         0.5179
     12 O2         -3.2113   -4.6806    1.0128 O.2       1 <0>        -0.5486
     13 N2         -1.0124   -4.9265    1.1751 N.am      1 <0>        -0.6873
     14 C9         -1.1261   -6.3858    1.1136 C.3       1 <0>         0.0693
     15 H2         -2.0367   -6.7011    1.6229 H         1 <0>         0.0931
     16 C10         0.0865   -7.0211    1.7969 C.3       1 <0>         0.0881
     17 O3          1.2692   -6.7027    1.0607 O.3       1 <0>        -0.5572
     18 C11        -1.1784   -6.8253   -0.3270 C.2       1 <0>         0.5027
     19 O4         -0.9440   -6.0259   -1.2171 O.co2     1 <0>        -0.6796
     20 O5         -1.4552   -7.9804   -0.6023 O.co2     1 <0>        -0.7032
     21 H3          1.0042    1.8801    0.0026 H         1 <0>         0.0898
     22 H4         -0.5455    1.8639   -0.8728 H         1 <0>         0.0865
     23 H5         -0.5286    1.8543    0.9071 H         1 <0>         0.0862
     24 H6         -2.2778    1.0797    0.1379 H         1 <0>         0.0858
     25 H7         -2.9716   -0.1786   -0.9169 H         1 <0>         0.0723
     26 H8         -2.7996   -0.2434    2.1313 H         1 <0>         0.0662
     27 H9         -4.2778   -0.0690    1.1540 H         1 <0>         0.0787
     28 H10        -4.0130   -2.4062    1.9133 H         1 <0>         0.0737
     29 H11        -3.8581   -2.3040    0.1432 H         1 <0>         0.0743
     30 H12        -1.5745   -2.5244   -0.9361 H         1 <0>         0.0810
     31 H13        -0.1300   -2.5264    0.1083 H         1 <0>         0.0998
     32 H14        -0.1398   -4.5111    1.2580 H         1 <0>         0.3964
     33 H15         0.1754   -6.6345    2.8121 H         1 <0>         0.0368
     34 H16        -0.0406   -8.1032    1.8299 H         1 <0>         0.0599
     35 H17         2.0788   -7.0737    1.4374 H         1 <0>         0.3670
@<TRIPOS>BOND
     1    1    2 1
     2    1   21 1
     3    1   22 1
     4    1   23 1
     5    2    3 2
     6    2    4 am
     7    4   10 1
     8    4    5 1
     9    5    6 1
    10    5   24 1
    11    5   25 1
    12    6    7 1
    13    6   26 1
    14    6   27 1
    15    7    8 1
    16    7   28 1
    17    7   29 1
    18    8    9 1
    19    8   10 1
    20    8   11 1
    21   10   30 1
    22   10   31 1
    23   11   12 2
    24   11   13 am
    25   13   14 1
    26   13   32 1
    27   14   15 1
    28   14   16 1
    29   14   18 1
    30   16   17 1
    31   16   33 1
    32   16   34 1
    33   17   35 1
    34   18   19 2
    35   18   20 1
@<TRIPOS>MOLECULE
ZINC40557585
   35    36     0     0     0
SMALL
USER_CHARGES

@<TRIPOS>ATOM
      1 C1         -0.0189    1.5396    0.0105 C.3       1 <0>        -0.1553
      2 C2          1.4941    1.8898   -0.0021 C.3       1 <0>        -0.1481
      3 C3          2.0564    0.7339   -0.8673 C.3       1 <0>         0.0696
      4 H1          1.9340    0.9601   -1.9265 H         1 <0>         0.0775
      5 O1          1.2747   -0.4169   -0.5096 O.3       1 <0>        -0.3766
      6 C4          0.0021   -0.0041    0.0020 C.3       1 <0>         0.0502
      7 C5          3.5328    0.4974   -0.5429 C.3       1 <0>         0.1460
      8 N1          4.0764   -0.5148   -1.4518 N.am      1 <0>        -0.7498
      9 C6          5.3679   -0.8867   -1.3514 C.2       1 <0>         0.7316
     10 O2          6.0819   -0.3822   -0.5064 O.2       1 <0>        -0.5701
     11 N2          5.8680   -1.8179   -2.1876 N.am      1 <0>        -0.6061
     12 C7          5.1196   -2.5031   -3.2570 C.3       1 <0>         0.0742
     13 C8          5.8801   -3.8335   -3.4836 C.3       1 <0>         0.0884
     14 H2          5.5984   -4.5766   -2.7376 H         1 <0>         0.0717
     15 C9          7.3536   -3.3861   -3.2940 C.3       1 <0>        -0.0951
     16 C10         7.2520   -2.3140   -2.1885 C.3       1 <0>         0.0848
     17 H3          7.4872   -2.7582   -1.2212 H         1 <0>         0.0689
     18 C11         8.2023   -1.1814   -2.4802 C.2       1 <0>         0.4947
     19 O3          7.7727   -0.0524   -2.6453 O.co2     1 <0>        -0.6715
     20 O4          9.4007   -1.3941   -2.5512 O.co2     1 <0>        -0.7026
     21 O5          5.6608   -4.3301   -4.8055 O.3       1 <0>        -0.5552
     22 H4         -0.4967    1.9161    0.9150 H         1 <0>         0.0820
     23 H5         -0.5138    1.9257   -0.8806 H         1 <0>         0.0763
     24 H6          1.6698    2.8560   -0.4751 H         1 <0>         0.0876
     25 H7          1.9113    1.8657    1.0047 H         1 <0>         0.0843
     26 H8         -0.1287   -0.3812    1.0163 H         1 <0>         0.0679
     27 H9         -0.7944   -0.3812   -0.6395 H         1 <0>         0.0661
     28 H10         4.0853    1.4291   -0.6644 H         1 <0>         0.0781
     29 H11         3.6276    0.1503    0.4860 H         1 <0>         0.0684
     30 H12         3.5068   -0.9174   -2.1259 H         1 <0>         0.3905
     31 H13         4.0964   -2.7008   -2.9373 H         1 <0>         0.0651
     32 H14         5.1243   -1.9037   -4.1674 H         1 <0>         0.0689
     33 H15         7.9717   -4.2225   -2.9677 H         1 <0>         0.0818
     34 H16         7.7459   -2.9510   -4.2132 H         1 <0>         0.0828
     35 H17         4.7355   -4.5310   -5.0017 H         1 <0>         0.3731
@<TRIPOS>BOND
     1    1    6 1
     2    1    2 1
     3    1   22 1
     4    1   23 1
     5    2    3 1
     6    2   24 1
     7    2   25 1
     8    3    4 1
     9    3    5 1
    10    3    7 1
    11    5    6 1
    12    6   26 1
    13    6   27 1
    14    7    8 1
    15    7   28 1
    16    7   29 1
    17    8    9 am
    18    8   30 1
    19    9   10 2
    20    9   11 am
    21   11   16 1
    22   11   12 1
    23   12   13 1
    24   12   31 1
    25   12   32 1
    26   13   14 1
    27   13   15 1
    28   13   21 1
    29   15   16 1
    30   15   33 1
    31   15   34 1
    32   16   17 1
    33   16   18 1
    34   18   19 2
    35   18   20 1
    36   21   35 1
@<TRIPOS>MOLECULE
ZINC42575601
   36    36     0     0     0
SMALL
USER_CHARGES

@<TRIPOS>ATOM
      1 C1         -0.0187    1.5258    0.0104 C.3       1 <0>        -0.1563
      2 C2          0.0021   -0.0041    0.0020 C.3       1 <0>         0.1490
      3 H1          0.5293   -0.3651    0.8851 H         1 <0>         0.1149
      4 C3         -1.4117   -0.5257    0.0127 C.2       1 <0>         0.5131
      5 O1         -1.8076   -1.2234   -0.8969 O.2       1 <0>        -0.5346
      6 N1         -2.2363   -0.2169    1.0331 N.am      1 <0>        -0.7342
      7 C4         -3.6107   -0.7239    1.0435 C.3       1 <0>         0.0885
      8 N2          0.6878   -0.4765   -1.2033 N.am      1 <0>        -0.7418
      9 C5          2.0310   -0.5870   -1.2149 C.2       1 <0>         0.7164
     10 O2          2.6736   -0.2945   -0.2251 O.2       1 <0>        -0.5661
     11 N3          2.6618   -1.0216   -2.3238 N.am      1 <0>        -0.7135
     12 C6          4.1218   -1.1417   -2.3364 C.3       1 <0>         0.1204
     13 C7          4.7816    0.2527   -2.1971 C.3       1 <0>        -0.1109
     14 C8          4.7066    0.8121   -3.6395 C.3       1 <0>        -0.1214
     15 C9          4.9812   -0.4135   -4.5353 C.3       1 <0>        -0.1198
     16 C10         4.6094   -1.6557   -3.7068 C.3       1 <0>        -0.1116
     17 C11         4.5838   -2.0594   -1.2340 C.2       1 <0>         0.5037
     18 O3          3.7676   -2.5880   -0.4986 O.co2     1 <0>        -0.6731
     19 O4          5.7739   -2.2734   -1.0776 O.co2     1 <0>        -0.7035
     20 H2          1.0039    1.9031    0.0027 H         1 <0>         0.0770
     21 H3         -0.5459    1.8868   -0.8726 H         1 <0>         0.0579
     22 H4         -0.5289    1.8773    0.9072 H         1 <0>         0.0636
     23 H5         -1.9197    0.3412    1.7606 H         1 <0>         0.4040
     24 H6         -4.1208   -0.3724    1.9403 H         1 <0>         0.0747
     25 H7         -4.1378   -0.3629    0.1605 H         1 <0>         0.0584
     26 H8         -3.5959   -1.8138    1.0375 H         1 <0>         0.0594
     27 H9          0.1751   -0.7099   -1.9930 H         1 <0>         0.3960
     28 H10         2.1491   -1.2550   -3.1135 H         1 <0>         0.3802
     29 H11         4.2156    0.8809   -1.5092 H         1 <0>         0.0680
     30 H12         5.8180    0.1590   -1.8725 H         1 <0>         0.0769
     31 H13         3.7147    1.2169   -3.8405 H         1 <0>         0.0554
     32 H14         5.4695    1.5753   -3.7928 H         1 <0>         0.0561
     33 H15         4.3650   -0.3653   -5.4331 H         1 <0>         0.0540
     34 H16         6.0362   -0.4482   -4.8074 H         1 <0>         0.0602
     35 H17         5.4839   -2.2932   -3.5768 H         1 <0>         0.0827
     36 H18         3.8128   -2.2104   -4.2025 H         1 <0>         0.0565
@<TRIPOS>BOND
     1    1    2 1
     2    1   20 1
     3    1   21 1
     4    1   22 1
     5    2    3 1
     6    2    4 1
     7    2    8 1
     8    4    5 2
     9    4    6 am
    10    6    7 1
    11    6   23 1
    12    7   24 1
    13    7   25 1
    14    7   26 1
    15    8    9 am
    16    8   27 1
    17    9   10 2
    18    9   11 am
    19   11   12 1
    20   11   28 1
    21   12   16 1
    22   12   13 1
    23   12   17 1
    24   13   14 1
    25   13   29 1
    26   13   30 1
    27   14   15 1
    28   14   31 1
    29   14   32 1
    30   15   16 1
    31   15   33 1
    32   15   34 1
    33   16   35 1
    34   16   36 1
    35   17   18 2
    36   17   19 1
@<TRIPOS>MOLECULE
ZINC50398249
   37    38     0     0     0
SMALL
USER_CHARGES

@<TRIPOS>ATOM
      1 C1         -0.0187    1.5258    0.0104 C.3       1 <0>        -0.1364
      2 C2          0.0021   -0.0041    0.0020 C.3       1 <0>         0.1484
      3 C3          0.7421   -0.5109    1.2415 C.3       1 <0>        -0.1472
      4 C4         -0.0071   -1.4702    2.1685 C.3       1 <0>        -0.1784
      5 C5          0.2483   -0.0266    2.6063 C.3       1 <0>        -0.1611
      6 C6         -1.4117   -0.5257    0.0127 C.2       1 <0>         0.5086
      7 O1         -1.8097   -1.2271   -0.9017 O.co2     1 <0>        -0.6755
      8 O2         -2.1576   -0.2463    0.9358 O.co2     1 <0>        -0.6985
      9 N1          0.6878   -0.4765   -1.2033 N.am      1 <0>        -0.7180
     10 C7          0.2113   -0.1507   -2.4212 C.2       1 <0>         0.7203
     11 O3         -0.7877    0.5354   -2.5195 O.2       1 <0>        -0.5533
     12 N2          0.8421   -0.5853   -3.5301 N.am      1 <0>        -0.7409
     13 C8          0.3242   -0.2311   -4.8539 C.3       1 <0>         0.1614
     14 H1         -0.7648   -0.1984   -4.8197 H         1 <0>         0.1192
     15 C9          0.7697   -1.2833   -5.8724 C.3       1 <0>        -0.1293
     16 C10         0.4585   -0.7584   -7.2792 C.3       1 <0>        -0.1340
     17 C11         1.3632    0.4408   -7.5655 C.3       1 <0>         0.1115
     18 N3          1.2913    1.4058   -6.4755 N.am      1 <0>        -0.7281
     19 C12         0.8515    1.1177   -5.2513 C.2       1 <0>         0.4980
     20 O4          0.8768    1.9939   -4.4131 O.2       1 <0>        -0.5222
     21 H2          1.0039    1.9031    0.0027 H         1 <0>         0.0333
     22 H3         -0.5459    1.8868   -0.8726 H         1 <0>         0.0707
     23 H4         -0.5289    1.8773    0.9072 H         1 <0>         0.0601
     24 H5          1.8144   -0.6633    1.1193 H         1 <0>         0.0901
     25 H6         -1.0272   -1.7403    1.8953 H         1 <0>         0.1187
     26 H7          0.5723   -2.2541    2.6563 H         1 <0>         0.0749
     27 H8          0.9958    0.1392    3.3821 H         1 <0>         0.0787
     28 H9         -0.6037    0.6530    2.6211 H         1 <0>         0.1070
     29 H10         1.4848   -1.0239   -1.1249 H         1 <0>         0.3776
     30 H11         1.6391   -1.1327   -3.4516 H         1 <0>         0.3887
     31 H12         1.8411   -1.4582   -5.7746 H         1 <0>         0.0733
     32 H13         0.2283   -2.2135   -5.6998 H         1 <0>         0.0858
     33 H14         0.6478   -1.5425   -8.0123 H         1 <0>         0.0882
     34 H15        -0.5855   -0.4496   -7.3317 H         1 <0>         0.0774
     35 H16         2.3920    0.0978   -7.6757 H         1 <0>         0.0623
     36 H17         1.0450    0.9192   -8.4918 H         1 <0>         0.0741
     37 H18         1.5832    2.3138   -6.6523 H         1 <0>         0.3945
@<TRIPOS>BOND
     1    1    2 1
     2    1   21 1
     3    1   22 1
     4    1   23 1
     5    2    3 1
     6    2    6 1
     7    2    9 1
     8    3    5 1
     9    3    4 1
    10    3   24 1
    11    4    5 1
    12    4   25 1
    13    4   26 1
    14    5   27 1
    15    5   28 1
    16    6    7 2
    17    6    8 1
    18    9   10 am
    19    9   29 1
    20   10   11 2
    21   10   12 am
    22   12   13 1
    23   12   30 1
    24   13   14 1
    25   13   19 1
    26   13   15 1
    27   15   16 1
    28   15   31 1
    29   15   32 1
    30   16   17 1
    31   16   33 1
    32   16   34 1
    33   17   18 1
    34   17   35 1
    35   17   36 1
    36   18   19 am
    37   18   37 1
    38   19   20 2
@<TRIPOS>MOLECULE
ZINC06088378
   17    17     0     0     0
SMALL
USER_CHARGES
4-methylpyridine-2-sulfonic acid
@<TRIPOS>ATOM
      1 C1          3.6773    2.1108   -0.0221 C.3       1 <0>        -0.1113
      2 C2          2.3711    1.3591   -0.0132 C.ar      1 <0>        -0.0716
      3 C3          1.1618    2.0376    0.0019 C.ar      1 <0>        -0.1547
      4 C4         -0.0158    1.3146    0.0093 C.ar      1 <0>         0.0688
      5 N1          0.0021   -0.0041    0.0020 N.ar      1 <0>        -0.4024
      6 C5          1.1329   -0.6821   -0.0124 C.ar      1 <0>        -0.4186
      7 C6          2.3500   -0.0270   -0.0205 C.ar      1 <0>        -0.1006
      8 S1          1.0919   -2.4436   -0.0209 S.o2      1 <0>         2.7010
      9 O1          2.3328   -2.8813    0.5157 O.2       1 <0>        -1.0515
     10 O2         -0.1571   -2.8235    0.5402 O.2       1 <0>        -1.0347
     11 H1          3.9820    2.2975   -1.0519 H         1 <0>         0.0741
     12 H2          3.5534    3.0606    0.4981 H         1 <0>         0.0673
     13 H3          4.4411    1.5178    0.4810 H         1 <0>         0.0720
     14 H4          1.1406    3.1173    0.0075 H         1 <0>         0.1299
     15 H5         -0.9618    1.8356    0.0166 H         1 <0>         0.1549
     16 H6          3.2728   -0.5879   -0.0326 H         1 <0>         0.1471
     17 O3          1.0673   -2.8862   -1.4769 O.3       1 <0>        -1.0695
@<TRIPOS>BOND
     1    1    2 1
     2    1   11 1
     3    1   12 1
     4    1   13 1
     5    2    7 ar
     6    2    3 ar
     7    3    4 ar
     8    3   14 1
     9    4    5 ar
    10    4   15 1
    11    5    6 ar
    12    6    7 ar
    13    6    8 1
    14    7   16 1
    15    8    9 2
    16    8   10 2
    17    8   17 1
@<TRIPOS>MOLECULE
ZINC06143899
   23    24     0     0     0
SMALL
USER_CHARGES
2,4-dimethylthieno[4,5-c]pyridine-3-sulfonic acid
@<TRIPOS>ATOM
      1 C1          2.1119    1.6407    1.9401 C.3       1 <0>        -0.1510
      2 C2          1.1319    2.0419    3.0123 C.ar      1 <0>         0.1898
      3 C3         -0.2474    2.0936    2.7118 C.ar      1 <0>        -0.0759
      4 C4         -1.0939    2.4847    3.7765 C.ar      1 <0>        -0.0927
      5 C5         -0.5777    2.7797    5.0216 C.ar      1 <0>        -0.1396
      6 C6          0.7771    2.6927    5.2093 C.ar      1 <0>         0.1005
      7 N1          1.5697    2.3324    4.2127 N.ar      1 <0>        -0.4920
      8 S1         -2.7124    2.4502    3.0571 S.3       1 <0>         0.0187
      9 C7         -2.2704    1.9431    1.4058 C.2       1 <0>         0.0044
     10 C8         -0.9359    1.8210    1.4607 C.2       1 <0>        -0.6878
     11 S2         -0.0274    1.3286    0.0335 S.o2      1 <0>         2.7040
     12 O1          0.6924    0.1578    0.3943 O.2       1 <0>        -1.0433
     13 O2          0.6149    2.4955   -0.4617 O.2       1 <0>        -1.0453
     14 C9         -3.1804    1.7079    0.2278 C.3       1 <0>        -0.1044
     15 H1          2.1552    0.5535    1.8758 H         1 <0>         0.1176
     16 H2          1.7897    2.0489    0.9821 H         1 <0>         0.0867
     17 H3          3.0998    2.0297    2.1869 H         1 <0>         0.0810
     18 H4         -1.2283    3.0736    5.8320 H         1 <0>         0.1370
     19 H5          1.2005    2.9198    6.1765 H         1 <0>         0.1626
     20 H6         -3.5012    0.6662    0.2188 H         1 <0>         0.0926
     21 H7         -4.0531    2.3561    0.3077 H         1 <0>         0.0679
     22 H8         -2.6452    1.9312   -0.6951 H         1 <0>         0.1368
     23 O3         -1.0403    0.9085   -1.0219 O.3       1 <0>        -1.0676
@<TRIPOS>BOND
     1    1    2 1
     2    1   15 1
     3    1   16 1
     4    1   17 1
     5    2    7 ar
     6    2    3 ar
     7    3   10 1
     8    3    4 ar
     9    4    5 ar
    10    4    8 1
    11    5    6 ar
    12    5   18 1
    13    6    7 ar
    14    6   19 1
    15    8    9 1
    16    9   10 2
    17    9   14 1
    18   10   11 1
    19   11   12 2
    20   11   13 2
    21   11   23 1
    22   14   20 1
    23   14   21 1
    24   14   22 1
@<TRIPOS>MOLECULE
ZINC16958405
   26    29     0     0     0
SMALL
USER_CHARGES
BLAHtetrone
@<TRIPOS>ATOM
      1 C1          1.5374   -0.3593    2.4698 C.3       1 <0>        -0.1058
      2 C2          0.0271   -0.0281    2.4832 C.3       1 <0>        -0.1059
      3 C3         -0.6494   -0.6157    1.2340 C.3       1 <0>        -0.0102
      4 H1         -1.7315   -0.4182    1.2267 H         1 <0>         0.0794
      5 C4         -0.3547   -2.1110    1.2278 C.2       1 <0>        -0.1606
      6 C5          0.9431   -2.4062    1.2171 C.2       1 <0>        -0.1606
      7 C6          1.8551   -1.1851    1.2128 C.3       1 <0>        -0.0104
      8 H2          2.9141   -1.4818    1.1882 H         1 <0>         0.0776
      9 C7          1.5120   -0.3492   -0.0120 C.3       1 <0>        -0.2099
     10 C8          0.0021   -0.0041    0.0020 C.3       1 <0>        -0.2102
     11 C9         -0.0183    1.4954    0.0103 C.2       1 <0>         0.5345
     12 O1         -1.0158    2.1843    0.0189 O.3       1 <0>        -0.5703
     13 N1          1.2443    1.9542    0.0007 N.2       1 <0>        -0.7488
     14 C10         2.1822    0.9924   -0.0127 C.2       1 <0>         0.5346
     15 O2          3.3799    1.1793   -0.0236 O.2       1 <0>        -0.5703
     16 C11        -0.5070   -0.5889   -1.2817 C.2       1 <0>         0.5346
     17 O3         -1.6547   -0.5412   -1.6689 O.3       1 <0>        -0.5720
     18 N2          0.5110   -1.1741   -1.9344 N.2       1 <0>        -0.7481
     19 C12         1.6930   -1.0942   -1.3008 C.2       1 <0>         0.5346
     20 O4          2.7397   -1.5518   -1.7066 O.2       1 <0>        -0.5721
     21 H3          1.7984   -0.9409    3.3662 H         1 <0>         0.0541
     22 H4          2.1222    0.5723    2.4540 H         1 <0>         0.0662
     23 H5         -0.4351   -0.4604    3.3829 H         1 <0>         0.0532
     24 H6         -0.1089    1.0634    2.4895 H         1 <0>         0.0648
     25 H7         -1.1023   -2.9179    1.2314 H         1 <0>         0.1107
     26 H8          1.2681   -3.4571    1.2122 H         1 <0>         0.1110
@<TRIPOS>BOND
     1    1    7 1
     2    1    2 1
     3    1   21 1
     4    1   22 1
     5    2    3 1
     6    2   23 1
     7    2   24 1
     8    3    4 1
     9    3   10 1
    10    3    5 1
    11    5    6 2
    12    5   25 1
    13    6    7 1
    14    6   26 1
    15    7    8 1
    16    7    9 1
    17    9   14 1
    18    9   19 1
    19    9   10 1
    20   10   11 1
    21   10   16 1
    22   11   12 1
    23   11   13 2
    24   13   14 1
    25   14   15 2
    26   16   17 1
    27   16   18 2
    28   18   19 1
    29   19   20 2
@<TRIPOS>MOLECULE
ZINC40910390
   26    26     0     0     0
SMALL
USER_CHARGES

@<TRIPOS>ATOM
      1 C1         -0.0187    1.5258    0.0104 C.3       1 <0>        -0.1369
      2 C2          0.0021   -0.0041    0.0020 C.3       1 <0>         0.1018
      3 C3          0.7421   -0.5109    1.2415 C.3       1 <0>        -0.1369
      4 C4         -1.4117   -0.5257    0.0127 C.2       1 <0>         0.5042
      5 O1         -1.8097   -1.2271   -0.9017 O.co2     1 <0>        -0.6924
      6 O2         -2.1576   -0.2463    0.9358 O.co2     1 <0>        -0.6994
      7 N1          0.6878   -0.4765   -1.2033 N.am      1 <0>        -0.7018
      8 C5          1.9715   -0.1323   -1.4270 C.2       1 <0>         0.5743
      9 O3          2.5603    0.5703   -0.6287 O.2       1 <0>        -0.5359
     10 C6          2.6634   -0.6090   -2.6433 C.ar      1 <0>        -0.0900
     11 C7          3.9958   -0.2489   -2.8709 C.ar      1 <0>         0.2681
     12 C8          4.6307   -0.7088   -4.0230 C.ar      1 <0>        -0.2450
     13 C9          3.9135   -1.5054   -4.8969 C.ar      1 <0>        -0.1104
     14 C10         2.5942   -1.8219   -4.6052 C.ar      1 <0>        -0.0651
     15 N2          2.0174   -1.3811   -3.5102 N.ar      1 <0>        -0.4123
     16 O4          4.6589    0.5354   -1.9849 O.3       1 <0>        -0.6702
     17 H1          1.0039    1.9031    0.0027 H         1 <0>         0.0669
     18 H2         -0.5459    1.8868   -0.8726 H         1 <0>         0.0374
     19 H3         -0.5289    1.8773    0.9072 H         1 <0>         0.0526
     20 H4          0.2319   -0.1594    2.1383 H         1 <0>         0.0526
     21 H5          0.7568   -1.6008    1.2356 H         1 <0>         0.0374
     22 H6          1.7647   -0.1336    1.2338 H         1 <0>         0.0669
     23 H7          0.2179   -1.0371   -1.8404 H         1 <0>         0.4079
     24 H8          5.6585   -0.4488   -4.2288 H         1 <0>         0.1033
     25 H9          4.3762   -1.8779   -5.7989 H         1 <0>         0.0986
     26 H10         2.0337   -2.4437   -5.2876 H         1 <0>         0.1244
@<TRIPOS>BOND
     1    1    2 1
     2    1   17 1
     3    1   18 1
     4    1   19 1
     5    2    3 1
     6    2    4 1
     7    2    7 1
     8    3   20 1
     9    3   21 1
    10    3   22 1
    11    4    5 2
    12    4    6 1
    13    7    8 am
    14    7   23 1
    15    8    9 2
    16    8   10 1
    17   10   11 ar
    18   10   15 ar
    19   11   16 1
    20   11   12 ar
    21   12   13 ar
    22   12   24 1
    23   13   14 ar
    24   13   25 1
    25   14   15 ar
    26   14   26 1
@<TRIPOS>MOLECULE
ZINC03075225
   24    23     0     0     0
SMALL
USER_CHARGES

@<TRIPOS>ATOM
      1 C1          0.5969    1.3831   -0.5420 C.2       1 <0>        -0.1780
      2 C2          0.5267    0.0813   -0.4135 C.2       1 <0>        -0.1567
      3 C3         -0.7800   -0.5695   -0.0395 C.3       1 <0>         0.0211
      4 N1         -1.1238   -1.5885   -1.0403 N.4       1 <0>        -0.3025
      5 C4         -0.1275   -2.6673   -1.0028 C.3       1 <0>        -0.5875
      6 P1          0.7879   -2.7042   -2.5789 P.3       1 <0>         2.1204
      7 O1         -0.2256   -2.8080   -3.7691 O.2       1 <0>        -1.0717
      8 O2          1.6311   -1.3918   -2.7239 O.3       1 <0>        -1.1628
      9 O3          1.7448   -3.9446   -2.5981 O.3       1 <0>        -1.1599
     10 C5         -2.4528   -2.1387   -0.7423 C.3       1 <0>        -0.5875
     11 P2         -3.0796   -3.0363   -2.2000 P.3       1 <0>         2.1082
     12 O4         -3.0490   -2.0906   -3.4486 O.2       1 <0>        -1.1136
     13 O5         -2.1768   -4.2879   -2.4705 O.3       1 <0>        -1.0970
     14 O6         -4.5515   -3.5020   -1.9335 O.3       1 <0>        -1.1669
     15 H1          1.5334    1.8495   -0.8101 H         1 <0>         0.1087
     16 H2         -0.2827    1.9895   -0.3842 H         1 <0>         0.0859
     17 H3          1.4053   -0.5255   -0.5757 H         1 <0>         0.1545
     18 H4         -0.6848   -1.0394    0.9395 H         1 <0>         0.0951
     19 H5         -1.5654    0.1856   -0.0052 H         1 <0>         0.0944
     20 H6          0.5683   -2.4910   -0.1825 H         1 <0>         0.0718
     21 H7         -0.6314   -3.6222   -0.8528 H         1 <0>         0.1305
     22 H8         -2.3816   -2.8232    0.1029 H         1 <0>         0.0849
     23 H9         -3.1355   -1.3258   -0.4950 H         1 <0>         0.0815
     24 H10        -1.1313   -1.1693   -1.9581 H         1 <0>         0.4270
@<TRIPOS>BOND
     1    1    2 2
     2    1   15 1
     3    1   16 1
     4    2    3 1
     5    2   17 1
     6    3    4 1
     7    3   18 1
     8    3   19 1
     9    4    5 1
    10    4   10 1
    11    4   24 1
    12    5    6 1
    13    5   20 1
    14    5   21 1
    15    6    7 2
    16    6    8 1
    17    6    9 1
    18   10   11 1
    19   10   22 1
    20   10   23 1
    21   11   12 2
    22   11   13 1
    23   11   14 1
@<TRIPOS>MOLECULE
ZINC13941994
   38    40     0     0     0
SMALL
USER_CHARGES
(4Z)-1-(4-bromophenyl)-4-[(2-hydroxy-3-methoxy-5-nitro-phenyl)methylene]pyrazolidine-3,5-dione
@<TRIPOS>ATOM
      1 C1          1.7280    5.4225   -0.4391 C.3       1 <0>         0.0239
      2 O1          0.4886    4.7859   -0.7561 O.3       1 <0>        -0.2948
      3 C2          0.2120    3.6190   -0.1146 C.ar      1 <0>         0.0173
      4 C3          1.1148    3.1005    0.7989 C.ar      1 <0>        -0.1160
      5 C4          0.8424    1.9123    1.4590 C.ar      1 <0>        -0.1415
      6 C5         -0.3287    1.2324    1.2146 C.ar      1 <0>         0.0713
      7 C6         -1.2526    1.7391    0.2883 C.ar      1 <0>        -0.2718
      8 C7         -0.9773    2.9472   -0.3758 C.ar      1 <0>         0.3370
      9 C8         -2.4970    1.0179    0.0194 C.2       1 <0>         0.2111
     10 C9         -2.4870   -0.3567   -0.0923 C.2       1 <0>        -0.3609
     11 C10        -3.6510   -1.2563   -0.2108 C.2       1 <0>         0.5828
     12 O2         -4.8221   -0.9277   -0.2296 O.2       1 <0>        -0.5093
     13 N1         -3.1682   -2.5105   -0.2943 N.am      1 <0>        -0.5244
     14 N2         -1.7746   -2.5046   -0.2396 N.am      1 <0>        -0.3616
     15 C11        -1.3100   -1.2459   -0.1255 C.2       1 <0>         0.5715
     16 O3         -0.1434   -0.9071   -0.0591 O.2       1 <0>        -0.4736
     17 C12        -0.9705   -3.6475   -0.3020 C.ar      1 <0>         0.1935
     18 C13         0.4122   -3.5293   -0.2449 C.ar      1 <0>        -0.1432
     19 C14         1.2034   -4.6598   -0.3019 C.ar      1 <0>        -0.0515
     20 C15         0.6204   -5.9083   -0.4267 C.ar      1 <0>        -0.1205
     21 C16        -0.7567   -6.0287   -0.4886 C.ar      1 <0>        -0.0568
     22 C17        -1.5530   -4.9021   -0.4268 C.ar      1 <0>        -0.1603
     23 Br1         1.7075   -7.4533   -0.5122 Br        1 <0>        -0.0552
     24 N3          1.8175    1.3713    2.4325 N.pl3     1 <0>         0.0669
     25 O4          1.5821    0.3275    3.0142 O.2       1 <0>        -0.2084
     26 O5          2.8553    1.9701    2.6517 O.3       1 <0>        -0.2190
     27 H1          1.7529    5.6600    0.6244 H         1 <0>         0.0493
     28 H2          2.5530    4.7526   -0.6812 H         1 <0>         0.0494
     29 H3          1.8235    6.3407   -1.0187 H         1 <0>         0.0937
     30 H4          2.0372    3.6257    0.9986 H         1 <0>         0.1358
     31 H5         -0.5345    0.3070    1.7320 H         1 <0>         0.1328
     32 H6         -3.4233    1.5620   -0.0917 H         1 <0>         0.1503
     33 H7         -3.7140   -3.3077   -0.3804 H         1 <0>         0.4313
     34 H8          0.8680   -2.5546   -0.1523 H         1 <0>         0.1687
     35 H9          2.2785   -4.5688   -0.2534 H         1 <0>         0.1409
     36 H10        -1.2091   -7.0045   -0.5856 H         1 <0>         0.1375
     37 H11        -2.6278   -4.9966   -0.4751 H         1 <0>         0.1307
     38 O6         -1.8641    3.4520   -1.2701 O.3       1 <0>        -0.6269
@<TRIPOS>BOND
     1    1    2 1
     2    1   27 1
     3    1   28 1
     4    1   29 1
     5    2    3 1
     6    3    8 ar
     7    3    4 ar
     8    4    5 ar
     9    4   30 1
    10    5    6 ar
    11    5   24 1
    12    6    7 ar
    13    6   31 1
    14    7    8 ar
    15    7    9 1
    16    8   38 1
    17    9   10 2
    18    9   32 1
    19   10   15 1
    20   10   11 1
    21   11   12 2
    22   11   13 am
    23   13   14 1
    24   13   33 1
    25   14   15 am
    26   14   17 1
    27   15   16 2
    28   17   22 ar
    29   17   18 ar
    30   18   19 ar
    31   18   34 1
    32   19   20 ar
    33   19   35 1
    34   20   21 ar
    35   20   23 1
    36   21   22 ar
    37   21   36 1
    38   22   37 1
    39   24   25 2
    40   24   26 1
@<TRIPOS>MOLECULE
ZINC33019105
   52    54     0     0     0
SMALL
USER_CHARGES
N-[4-[(2S,6S)-2,6-dimethylmorpholine-4-carbonyl]phenyl]-2-methyl-5-nitro-benzenesulfonamide
@<TRIPOS>ATOM
      1 C1          4.1999    5.2910   -1.1965 C.3       1 <0>        -0.1676
      2 C2          3.6532    3.9965   -1.7408 C.ar      1 <0>         0.0731
      3 C3          4.0806    3.5278   -2.9693 C.ar      1 <0>        -0.1481
      4 C4          3.5750    2.3434   -3.4711 C.ar      1 <0>        -0.0216
      5 C5          2.6497    1.6219   -2.7398 C.ar      1 <0>        -0.0810
      6 C6          2.2228    2.0902   -1.5115 C.ar      1 <0>         0.0388
      7 C7          2.7243    3.2779   -1.0121 C.ar      1 <0>        -0.6658
      8 S1          2.1795    3.8752    0.5535 S.o2      1 <0>         2.5889
      9 O1          1.8351    5.2415    0.3695 O.2       1 <0>        -0.9834
     10 O2          1.2568    2.9178    1.0548 O.2       1 <0>        -1.0271
     11 N1          3.4871    3.8493    1.5693 N.2       1 <0>        -1.0554
     12 C8          4.1187    2.6450    1.8591 C.ar      1 <0>         0.2569
     13 C9          3.3607    1.5258    2.1924 C.ar      1 <0>        -0.2264
     14 C10         3.9826    0.3309    2.4742 C.ar      1 <0>        -0.0721
     15 C11         5.3774    0.2448    2.4371 C.ar      1 <0>        -0.2163
     16 C12         6.1359    1.3719    2.1076 C.ar      1 <0>        -0.0373
     17 C13         5.5079    2.5623    1.8209 C.ar      1 <0>        -0.1707
     18 C14         6.0475   -1.0327    2.7455 C.2       1 <0>         0.5747
     19 O3          7.1751   -1.0335    3.2005 O.2       1 <0>        -0.5527
     20 N2          5.4099   -2.1991    2.5229 N.am      1 <0>        -0.6150
     21 C15         4.0942   -2.2295    1.8644 C.3       1 <0>         0.0567
     22 C16         4.1570   -3.2485    0.7154 C.3       1 <0>         0.0669
     23 H1          4.8693   -2.9400   -0.0640 H         1 <0>         0.0664
     24 O4          4.6428   -4.4948    1.2199 O.3       1 <0>        -0.3806
     25 C17         5.9731   -4.4370    1.7402 C.3       1 <0>         0.0768
     26 H2          6.2257   -5.4649    2.0397 H         1 <0>         0.1110
     27 C18         6.0060   -3.4792    2.9367 C.3       1 <0>         0.0836
     28 C19         6.9250   -3.9311    0.6543 C.3       1 <0>        -0.1823
     29 C20         2.7564   -3.4446    0.1315 C.3       1 <0>        -0.1460
     30 N3          2.1125    0.3506   -3.2746 N.pl3     1 <0>         0.0363
     31 O5          1.2941   -0.2829   -2.6323 O.2       1 <0>        -0.1608
     32 O6          2.4887   -0.0621   -4.3571 O.3       1 <0>        -0.1745
     33 H3          4.9205    5.7142   -1.9117 H         1 <0>         0.0745
     34 H4          4.7036    5.1017   -0.2371 H         1 <0>         0.1126
     35 H5          3.3746    6.0020   -1.0434 H         1 <0>         0.1120
     36 H6          4.8063    4.0895   -3.5388 H         1 <0>         0.1480
     37 H7          3.9056    1.9796   -4.4327 H         1 <0>         0.1514
     38 H8          1.4971    1.5285   -0.9420 H         1 <0>         0.1640
     39 H9          2.2834    1.5942    2.2255 H         1 <0>         0.1471
     40 H10         3.3939   -0.5381    2.7284 H         1 <0>         0.1252
     41 H11         7.2136    1.3086    2.0785 H         1 <0>         0.1168
     42 H12         6.0933    3.4334    1.5663 H         1 <0>         0.1201
     43 H13         3.3262   -2.5278    2.5932 H         1 <0>         0.0788
     44 H14         3.8578   -1.2298    1.4711 H         1 <0>         0.1242
     45 H15         7.0450   -3.3131    3.2575 H         1 <0>         0.1012
     46 H16         5.4272   -3.9002    3.7720 H         1 <0>         0.0717
     47 H17         7.9483   -3.8869    1.0553 H         1 <0>         0.0684
     48 H18         6.6135   -2.9264    0.3327 H         1 <0>         0.0631
     49 H19         6.8975   -4.6164   -0.2057 H         1 <0>         0.0630
     50 H20         2.8008   -4.1738   -0.6909 H         1 <0>         0.0661
     51 H21         2.3805   -2.4839   -0.2502 H         1 <0>         0.0796
     52 H22         2.0810   -3.8171    0.9158 H         1 <0>         0.0668
@<TRIPOS>BOND
     1    1    2 1
     2    1   33 1
     3    1   34 1
     4    1   35 1
     5    2    7 ar
     6    2    3 ar
     7    3    4 ar
     8    3   36 1
     9    4    5 ar
    10    4   37 1
    11    5    6 ar
    12    5   30 1
    13    6    7 ar
    14    6   38 1
    15    7    8 1
    16    8    9 2
    17    8   10 2
    18    8   11 1
    19   11   12 1
    20   12   17 ar
    21   12   13 ar
    22   13   14 ar
    23   13   39 1
    24   14   15 ar
    25   14   40 1
    26   15   16 ar
    27   15   18 1
    28   16   17 ar
    29   16   41 1
    30   17   42 1
    31   18   19 2
    32   18   20 am
    33   20   27 1
    34   20   21 1
    35   21   22 1
    36   21   43 1
    37   21   44 1
    38   22   23 1
    39   22   24 1
    40   22   29 1
    41   24   25 1
    42   25   26 1
    43   25   27 1
    44   25   28 1
    45   27   45 1
    46   27   46 1
    47   28   47 1
    48   28   48 1
    49   28   49 1
    50   29   50 1
    51   29   51 1
    52   29   52 1
    53   30   31 2
    54   30   32 1
@<TRIPOS>MOLECULE
ZINC41539345
   51    53     0     0     0
SMALL
USER_CHARGES

@<TRIPOS>ATOM
      1 C1          2.9170    1.0853   -3.5090 C.3       1 <0>        -0.0775
      2 C2          2.7130   -0.3334   -3.0435 C.2       1 <0>         0.1414
      3 C3          1.5544   -0.8426   -2.4147 C.2       1 <0>        -0.2888
      4 C4          1.7857   -2.1801   -2.1561 C.2       1 <0>         0.1324
      5 N1          3.0185   -2.4681   -2.6036 N.pl3     1 <0>        -0.3737
      6 N2          3.5728   -1.3078   -3.1555 N.2       1 <0>        -0.3194
      7 C5          3.6710   -3.7778   -2.5316 C.3       1 <0>         0.1020
      8 C6          0.8305   -3.1390   -1.4933 C.3       1 <0>        -0.0953
      9 C7          0.3283   -0.0879   -2.0946 C.2       1 <0>         0.5505
     10 O1         -0.5622   -0.6166   -1.4552 O.2       1 <0>        -0.4981
     11 C8          0.1821    1.3000   -2.5469 C.2       1 <0>        -0.5007
     12 C9         -0.1394    1.7122   -3.7944 C.2       1 <0>         0.2606
     13 C10        -0.1826    3.1893   -3.8220 C.2       1 <0>         0.5100
     14 O2         -0.4436    3.8611   -4.8001 O.2       1 <0>        -0.5352
     15 N3          0.1094    3.6800   -2.6037 N.am      1 <0>        -0.6091
     16 C11         0.3551    2.5442   -1.7073 C.3       1 <0>         0.2651
     17 H1          1.3705    2.5926   -1.3139 H         1 <0>         0.0743
     18 C12        -0.6404    2.5485   -0.5760 C.ar      1 <0>        -0.0474
     19 C13        -1.9915    2.4290   -0.8437 C.ar      1 <0>         0.0115
     20 C14        -2.9046    2.4330    0.1939 C.ar      1 <0>        -0.1265
     21 C15        -2.4668    2.5560    1.4995 C.ar      1 <0>        -0.0623
     22 C16        -1.1160    2.6745    1.7672 C.ar      1 <0>        -0.0538
     23 C17        -0.2023    2.6663    0.7296 C.ar      1 <0>        -0.0452
     24 N4         -0.6473    2.8068    3.1650 N.pl3     1 <0>         0.0437
     25 O3         -1.4461    2.8111    4.0725 O.2       1 <0>        -0.1801
     26 O4          0.5342    2.9105    3.3991 O.3       1 <0>        -0.1737
     27 C18         0.1671    5.0969   -2.2360 C.3       1 <0>         0.1384
     28 C19        -1.2441    5.6021   -1.9294 C.3       1 <0>         0.0399
     29 O5         -1.7283    4.9716   -0.7419 O.3       1 <0>        -0.3747
     30 C20        -3.0708    5.3244   -0.4026 C.3       1 <0>         0.0297
     31 O6         -0.3828    0.9010   -4.8497 O.3       1 <0>        -0.6574
     32 H2          2.6252    1.1698   -4.5558 H         1 <0>         0.0807
     33 H3          2.3058    1.7569   -2.9061 H         1 <0>         0.0947
     34 H4          3.9675    1.3554   -3.4017 H         1 <0>         0.0605
     35 H5          3.4421   -4.3477   -3.4321 H         1 <0>         0.0723
     36 H6          4.7496   -3.6424   -2.4515 H         1 <0>         0.0875
     37 H7          3.3067   -4.3176   -1.6575 H         1 <0>         0.0842
     38 H8          0.2092   -3.6153   -2.2517 H         1 <0>         0.0813
     39 H9          1.3950   -3.9005   -0.9553 H         1 <0>         0.0639
     40 H10         0.1964   -2.5946   -0.7935 H         1 <0>         0.1036
     41 H11        -2.3335    2.3329   -1.8636 H         1 <0>         0.1288
     42 H12        -3.9601    2.3404   -0.0153 H         1 <0>         0.1351
     43 H13        -3.1803    2.5598    2.3103 H         1 <0>         0.1402
     44 H14         0.8534    2.7551    0.9390 H         1 <0>         0.1409
     45 H15         0.7960    5.2180   -1.3540 H         1 <0>         0.0858
     46 H16         0.5866    5.6701   -3.0628 H         1 <0>         0.0931
     47 H17        -1.2197    6.6820   -1.7833 H         1 <0>         0.0549
     48 H18        -1.9047    5.3631   -2.7629 H         1 <0>         0.0549
     49 H19        -3.3316    4.8798    0.5579 H         1 <0>         0.0817
     50 H20        -3.1557    6.4090   -0.3359 H         1 <0>         0.0354
     51 H21        -3.7493    4.9534   -1.1708 H         1 <0>         0.0398
@<TRIPOS>BOND
     1    1    2 1
     2    1   32 1
     3    1   33 1
     4    1   34 1
     5    2    6 2
     6    2    3 1
     7    3    4 2
     8    3    9 1
     9    4    5 1
    10    4    8 1
    11    5    6 1
    12    5    7 1
    13    7   35 1
    14    7   36 1
    15    7   37 1
    16    8   38 1
    17    8   39 1
    18    8   40 1
    19    9   10 2
    20    9   11 1
    21   11   16 1
    22   11   12 2
    23   12   13 1
    24   12   31 1
    25   13   14 2
    26   13   15 am
    27   15   16 1
    28   15   27 1
    29   16   17 1
    30   16   18 1
    31   18   23 ar
    32   18   19 ar
    33   19   20 ar
    34   19   41 1
    35   20   21 ar
    36   20   42 1
    37   21   22 ar
    38   21   43 1
    39   22   23 ar
    40   22   24 1
    41   23   44 1
    42   24   25 2
    43   24   26 1
    44   27   28 1
    45   27   45 1
    46   27   46 1
    47   28   29 1
    48   28   47 1
    49   28   48 1
    50   29   30 1
    51   30   49 1
    52   30   50 1
    53   30   51 1
@<TRIPOS>MOLECULE
ZINC33319964
   43    45     0     0     0
SMALL
USER_CHARGES

@<TRIPOS>ATOM
      1 C1         -1.0326    1.8434    3.5680 C.3       1 <0>         0.0187
      2 O1         -0.6292    0.5409    3.1404 O.3       1 <0>        -0.2919
      3 C2         -1.5073   -0.1556    2.3702 C.ar      1 <0>         0.1484
      4 C3         -2.6805    0.4374    1.9524 C.ar      1 <0>        -0.0980
      5 C4         -3.5817   -0.2888    1.1575 C.ar      1 <0>        -0.0069
      6 C5         -3.2814   -1.6112    0.7950 C.ar      1 <0>        -0.0246
      7 C6         -2.1169   -2.1880    1.2145 C.ar      1 <0>        -0.1296
      8 C7         -1.2197   -1.4699    1.9968 C.ar      1 <0>         0.1194
      9 O2         -0.0624   -2.0503    2.4035 O.3       1 <0>        -0.2926
     10 C8          0.1696   -3.3972    1.9860 C.3       1 <0>         0.0187
     11 N1         -4.2283   -2.3814   -0.0424 N.pl3     1 <0>         0.0393
     12 O3         -3.9183   -3.4743   -0.4563 O.2       1 <0>        -0.1595
     13 O4         -5.3116   -1.9177   -0.3126 O.3       1 <0>        -0.1516
     14 C9         -4.8279    0.3296    0.7096 C.2       1 <0>         0.0591
     15 C10        -4.8132    1.6052    0.1700 C.2       1 <0>        -0.2314
     16 C11        -6.0580    2.3518   -0.0740 C.2       1 <0>         0.4953
     17 O5         -7.2581    1.8100    0.2243 O.3       1 <0>        -0.5730
     18 N2         -5.9738    3.5646   -0.5911 N.2       1 <0>        -0.5877
     19 C12        -4.8054    4.1243   -0.8946 C.2       1 <0>         0.5369
     20 S1         -4.8131    5.7018   -1.5599 S.2       1 <0>        -0.6385
     21 N3         -3.6222    3.5215   -0.7079 N.am      1 <0>        -0.5092
     22 C13        -3.5476    2.2803   -0.1811 C.2       1 <0>         0.5528
     23 O6         -2.4741    1.7347   -0.0060 O.2       1 <0>        -0.4928
     24 C14        -2.4437    4.1928   -1.0596 C.ar      1 <0>         0.1602
     25 C15        -1.8106    3.9034   -2.2611 C.ar      1 <0>        -0.0819
     26 C16        -0.6490    4.5663   -2.6054 C.ar      1 <0>        -0.1003
     27 C17        -0.1158    5.5181   -1.7541 C.ar      1 <0>        -0.0282
     28 C18        -0.7446    5.8080   -0.5559 C.ar      1 <0>        -0.1013
     29 C19        -1.9100    5.1525   -0.2100 C.ar      1 <0>        -0.0705
     30 Cl1         1.3447    6.3493   -2.1896 Cl        1 <0>        -0.0763
     31 H1         -0.2756    2.2579    4.2337 H         1 <0>         0.1090
     32 H2         -1.1469    2.4918    2.6993 H         1 <0>         0.0641
     33 H3         -1.9831    1.7739    4.0971 H         1 <0>         0.0599
     34 H4         -2.9050    1.4552    2.2355 H         1 <0>         0.1534
     35 H5         -1.8899   -3.2059    0.9337 H         1 <0>         0.1655
     36 H6          1.1272   -3.7394    2.3785 H         1 <0>         0.1078
     37 H7         -0.6276   -4.0372    2.3641 H         1 <0>         0.0604
     38 H8          0.1861   -3.4423    0.8971 H         1 <0>         0.0614
     39 H9         -5.7603   -0.2080    0.7994 H         1 <0>         0.1834
     40 H10        -2.2260    3.1601   -2.9255 H         1 <0>         0.1284
     41 H11        -0.1563    4.3416   -3.5398 H         1 <0>         0.1361
     42 H12        -0.3263    6.5510    0.1070 H         1 <0>         0.1368
     43 H13        -2.4030    5.3826    0.7230 H         1 <0>         0.1307
@<TRIPOS>BOND
     1    1    2 1
     2    1   31 1
     3    1   32 1
     4    1   33 1
     5    2    3 1
     6    3    8 ar
     7    3    4 ar
     8    4    5 ar
     9    4   34 1
    10    5    6 ar
    11    5   14 1
    12    6    7 ar
    13    6   11 1
    14    7    8 ar
    15    7   35 1
    16    8    9 1
    17    9   10 1
    18   10   36 1
    19   10   37 1
    20   10   38 1
    21   11   12 2
    22   11   13 1
    23   14   15 2
    24   14   39 1
    25   15   22 1
    26   15   16 1
    27   16   17 1
    28   16   18 2
    29   18   19 1
    30   19   20 2
    31   19   21 1
    32   21   22 am
    33   21   24 1
    34   22   23 2
    35   24   29 ar
    36   24   25 ar
    37   25   26 ar
    38   25   40 1
    39   26   27 ar
    40   26   41 1
    41   27   28 ar
    42   27   30 1
    43   28   29 ar
    44   28   42 1
    45   29   43 1
@<TRIPOS>MOLECULE
ZINC64099659
   47    49     0     0     0
SMALL
USER_CHARGES

@<TRIPOS>ATOM
      1 C1         -0.0187    1.5258    0.0104 C.3       1 <0>        -0.1591
      2 C2          0.0021   -0.0041    0.0020 C.3       1 <0>         0.1231
      3 C3         -1.4117   -0.5257    0.0127 C.2       1 <0>         0.4929
      4 O1         -2.0205   -0.8485   -1.1473 O.3       1 <0>        -0.6965
      5 N1         -2.0401   -0.6636    1.1313 N.2       1 <0>        -1.0633
      6 S1         -3.5937   -1.2368    1.1431 S.o2      1 <0>         2.6460
      7 O2         -4.3937   -0.2550    0.4987 O.2       1 <0>        -0.9951
      8 O3         -3.5330   -2.5840    0.6950 O.2       1 <0>        -0.9963
      9 C4         -4.1172   -1.2885    2.8247 C.ar      1 <0>        -0.6092
     10 C5         -3.9033   -2.4271    3.5801 C.ar      1 <0>        -0.0103
     11 C6         -4.3127   -2.4713    4.8999 C.ar      1 <0>        -0.1190
     12 C7         -4.9369   -1.3776    5.4679 C.ar      1 <0>        -0.0811
     13 C8         -5.1529   -0.2336    4.7122 C.ar      1 <0>         0.0966
     14 C9         -4.7356   -0.1901    3.3887 C.ar      1 <0>        -0.0006
     15 N2         -5.7864    0.8785    5.2862 N.pl3     1 <0>        -0.3192
     16 C10        -6.1560    1.0368    6.5756 C.2       1 <0>         0.2197
     17 N3         -6.7108    2.2162    6.6784 N.2       1 <0>        -0.3329
     18 N4         -6.7170    2.8143    5.5420 N.2       1 <0>        -0.0388
     19 N5         -6.1672    2.0699    4.6440 N.2       1 <0>        -0.0674
     20 O4          0.6709   -0.4649   -1.1737 O.3       1 <0>        -0.3510
     21 C11         2.0796   -0.6405   -1.0099 C.3       1 <0>         0.0655
     22 C12         2.6883   -1.1335   -2.3242 C.3       1 <0>         0.0931
     23 C13         4.1739   -1.4392   -2.1158 C.3       1 <0>        -0.1480
     24 C14         4.7895   -1.8743   -3.4492 C.3       1 <0>        -0.1209
     25 C15         4.5632   -0.7713   -4.4876 C.3       1 <0>        -0.1567
     26 C16         3.0626   -0.4913   -4.6044 C.3       1 <0>         0.0587
     27 O5          2.5472   -0.1220   -3.3237 O.3       1 <0>        -0.3652
     28 H1          1.0039    1.9031    0.0027 H         1 <0>         0.0548
     29 H2         -0.5459    1.8868   -0.8726 H         1 <0>         0.0656
     30 H3         -0.5289    1.8773    0.9072 H         1 <0>         0.0706
     31 H4          0.5293   -0.3651    0.8851 H         1 <0>         0.0747
     32 H5         -3.4159   -3.2834    3.1381 H         1 <0>         0.1508
     33 H6         -4.1447   -3.3619    5.4873 H         1 <0>         0.1460
     34 H7         -5.2568   -1.4128    6.4988 H         1 <0>         0.1384
     35 H8         -4.8984    0.7004    2.7996 H         1 <0>         0.1564
     36 H9         -6.0191    0.3219    7.3734 H         1 <0>         0.2383
     37 H10         2.5345    0.3106   -0.7330 H         1 <0>         0.0530
     38 H11         2.2656   -1.3742   -0.2256 H         1 <0>         0.0601
     39 H12         2.1727   -2.0379   -2.6469 H         1 <0>         0.0677
     40 H13         4.6825   -0.5456   -1.7542 H         1 <0>         0.0723
     41 H14         4.2817   -2.2414   -1.3858 H         1 <0>         0.0749
     42 H15         5.8592   -2.0397   -3.3202 H         1 <0>         0.0661
     43 H16         4.3149   -2.7957   -3.7866 H         1 <0>         0.0644
     44 H17         5.0796    0.1359   -4.1739 H         1 <0>         0.0696
     45 H18         4.9494   -1.0958   -5.4539 H         1 <0>         0.0701
     46 H19         2.8985    0.3225   -5.3107 H         1 <0>         0.0917
     47 H20         2.5520   -1.3874   -4.9571 H         1 <0>         0.0496
@<TRIPOS>BOND
     1    1    2 1
     2    1   28 1
     3    1   29 1
     4    1   30 1
     5    2    3 1
     6    2   20 1
     7    2   31 1
     8    3    4 1
     9    3    5 2
    10    5    6 1
    11    6    7 2
    12    6    8 2
    13    6    9 1
    14    9   14 ar
    15    9   10 ar
    16   10   11 ar
    17   10   32 1
    18   11   12 ar
    19   11   33 1
    20   12   13 ar
    21   12   34 1
    22   13   14 ar
    23   13   15 1
    24   14   35 1
    25   15   19 1
    26   15   16 1
    27   16   17 2
    28   16   36 1
    29   17   18 1
    30   18   19 2
    31   20   21 1
    32   21   22 1
    33   21   37 1
    34   21   38 1
    35   22   27 1
    36   22   23 1
    37   22   39 1
    38   23   24 1
    39   23   40 1
    40   23   41 1
    41   24   25 1
    42   24   42 1
    43   24   43 1
    44   25   26 1
    45   25   44 1
    46   25   45 1
    47   26   27 1
    48   26   46 1
    49   26   47 1
@<TRIPOS>MOLECULE
ZINC04822094
   32    33     0     0     0
SMALL
USER_CHARGES
5-(2,4-dinitrophenyl)amino-2-hydroxy-benzenesulfonic acid
@<TRIPOS>ATOM
      1 C1          0.1491   -2.0577    1.2573 C.ar      1 <0>        -0.1491
      2 C2          0.1718   -0.6770    1.2886 C.ar      1 <0>        -0.1284
      3 C3          0.1444    0.0443    0.1044 C.ar      1 <0>         0.1660
      4 C4          0.0886   -0.6198   -1.1123 C.ar      1 <0>        -0.6406
      5 C5          0.0717   -2.0001   -1.1458 C.ar      1 <0>        -0.0603
      6 C6          0.0990   -2.7234    0.0397 C.ar      1 <0>         0.1686
      7 N1          0.0756   -4.1224    0.0071 N.pl3     1 <0>        -0.7050
      8 C7          0.1928   -4.8508    1.1933 C.ar      1 <0>         0.2841
      9 C8          1.4000   -5.4546    1.5234 C.ar      1 <0>        -0.1219
     10 C9          1.5124   -6.1734    2.6969 C.ar      1 <0>         0.0009
     11 C10         0.4252   -6.2929    3.5434 C.ar      1 <0>        -0.0545
     12 C11        -0.7776   -5.6934    3.2181 C.ar      1 <0>         0.0138
     13 C12        -0.8956   -4.9684    2.0484 C.ar      1 <0>        -0.0608
     14 N2         -2.1820   -4.3223    1.7037 N.pl3     1 <0>         0.0247
     15 O1         -3.0993   -4.3259    2.5050 O.2       1 <0>        -0.1600
     16 O2         -2.3232   -3.7871    0.6187 O.3       1 <0>        -0.0993
     17 N3          0.5496   -7.0639    4.8009 N.pl3     1 <0>         0.0293
     18 O3          1.6086   -7.5922    5.0891 O.2       1 <0>        -0.1427
     19 O4         -0.4069   -7.1700    5.5474 O.3       1 <0>        -0.1442
     20 S1          0.0461    0.2981   -2.6157 S.o2      1 <0>         2.6918
     21 O5          1.3938    0.6135   -2.9373 O.2       1 <0>        -1.0569
     22 O6         -0.8019   -0.4166   -3.5042 O.2       1 <0>        -1.0528
     23 O7          0.1667    1.4037    0.1361 O.3       1 <0>        -0.4725
     24 H1          0.1708   -2.6193    2.1796 H         1 <0>         0.1043
     25 H2          0.2104   -0.1591    2.2355 H         1 <0>         0.1295
     26 H3          0.0327   -2.5170   -2.0932 H         1 <0>         0.1376
     27 H4         -0.0220   -4.5862   -0.8392 H         1 <0>         0.4257
     28 H5          2.2494   -5.3614    0.8630 H         1 <0>         0.1766
     29 H6          2.4505   -6.6426    2.9542 H         1 <0>         0.1756
     30 H7         -1.6246   -5.7887    3.8814 H         1 <0>         0.1833
     31 H8          1.0560    1.7831    0.1165 H         1 <0>         0.3896
     32 O8         -0.6502    1.6182   -2.3174 O.3       1 <0>        -1.0524
@<TRIPOS>BOND
     1    1    6 ar
     2    1    2 ar
     3    1   24 1
     4    2    3 ar
     5    2   25 1
     6    3    4 ar
     7    3   23 1
     8    4    5 ar
     9    4   20 1
    10    5    6 ar
    11    5   26 1
    12    6    7 1
    13    7    8 1
    14    7   27 1
    15    8   13 ar
    16    8    9 ar
    17    9   10 ar
    18    9   28 1
    19   10   11 ar
    20   10   29 1
    21   11   12 ar
    22   11   17 1
    23   12   13 ar
    24   12   30 1
    25   13   14 1
    26   14   15 2
    27   14   16 1
    28   17   18 2
    29   17   19 1
    30   20   21 2
    31   20   22 2
    32   20   32 1
    33   23   31 1
@<TRIPOS>MOLECULE
ZINC23141395
   38    40     0     0     0
SMALL
USER_CHARGES

@<TRIPOS>ATOM
      1 C1          0.0912    1.2175    0.6618 C.3       1 <0>         0.0213
      2 O1          0.0636   -0.1905    0.4195 O.3       1 <0>        -0.3028
      3 C2          0.7028   -0.9828    1.3169 C.ar      1 <0>         0.2576
      4 C3          1.3399   -0.4138    2.4137 C.ar      1 <0>        -0.2305
      5 C4          1.9899   -1.2140    3.3262 C.ar      1 <0>         0.0095
      6 C5          2.0084   -2.6003    3.1489 C.ar      1 <0>        -0.1909
      7 C6          1.3664   -3.1683    2.0454 C.ar      1 <0>         0.0798
      8 C7          0.7140   -2.3612    1.1400 C.ar      1 <0>        -0.7181
      9 S1         -0.1020   -3.0767   -0.2481 S.o2      1 <0>         2.7052
     10 O2          0.1232   -4.4778   -0.1737 O.2       1 <0>        -0.9486
     11 O3         -1.4070   -2.5158   -0.2856 O.2       1 <0>        -0.9424
     12 N1          0.6819   -2.5428   -1.6056 N.pl3     1 <0>        -1.0814
     13 C8          2.0740   -2.9298   -1.8476 C.3       1 <0>         0.0798
     14 C9          2.9746   -1.9188   -2.5600 C.3       1 <0>        -0.1887
     15 C10         2.4981   -3.1717   -3.2976 C.3       1 <0>        -0.1824
     16 C11         2.7043   -3.4617    4.1243 C.2       1 <0>         0.5645
     17 O4          2.7193   -4.6675    3.9684 O.2       1 <0>        -0.4771
     18 N2          3.3233   -2.9119    5.1878 N.am      1 <0>        -0.6234
     19 C12         3.9826   -3.7279    6.1117 C.2       1 <0>         0.4396
     20 N3          4.6299   -3.3040    7.2014 N.2       1 <0>        -0.5590
     21 H1          5.0459   -6.3549    7.4103 H         1 <0>         0.4472
     22 C13         5.1308   -4.3274    7.8449 C.2       1 <0>         0.2844
     23 N4          4.8103   -5.4449    7.1710 N.pl3     1 <0>        -0.4799
     24 N5          4.0627   -5.0360    6.0547 N.2       1 <0>        -0.2865
     25 H2          1.1247    1.5638    0.6742 H         1 <0>         0.0662
     26 H3         -0.4552    1.7329   -0.1281 H         1 <0>         0.1130
     27 H4         -0.3748    1.4298    1.6240 H         1 <0>         0.0673
     28 H5          1.3252    0.6575    2.5500 H         1 <0>         0.1492
     29 H6          2.4852   -0.7711    4.1776 H         1 <0>         0.1404
     30 H7          1.3784   -4.2390    1.9049 H         1 <0>         0.1667
     31 H8          0.2193   -1.9738   -2.2405 H         1 <0>         0.4211
     32 H9          2.5283   -3.5554   -1.0792 H         1 <0>         0.1369
     33 H10         2.5315   -0.9657   -2.8486 H         1 <0>         0.0996
     34 H11         4.0219   -1.8790   -2.2603 H         1 <0>         0.1030
     35 H12         3.2318   -3.9561   -3.4831 H         1 <0>         0.1057
     36 H13         1.7414   -3.0429   -4.0715 H         1 <0>         0.1011
     37 H14         3.3113   -1.9499    5.3121 H         1 <0>         0.4228
     38 H15         5.7034   -4.2816    8.7595 H         1 <0>         0.2299
@<TRIPOS>BOND
     1    1    2 1
     2    1   25 1
     3    1   26 1
     4    1   27 1
     5    2    3 1
     6    3    8 ar
     7    3    4 ar
     8    4    5 ar
     9    4   28 1
    10    5    6 ar
    11    5   29 1
    12    6    7 ar
    13    6   16 1
    14    7    8 ar
    15    7   30 1
    16    8    9 1
    17    9   10 2
    18    9   11 2
    19    9   12 1
    20   12   13 1
    21   12   31 1
    22   13   15 1
    23   13   14 1
    24   13   32 1
    25   14   15 1
    26   14   33 1
    27   14   34 1
    28   15   35 1
    29   15   36 1
    30   16   17 2
    31   16   18 am
    32   18   37 1
    33   18   19 1
    34   19   20 1
    35   19   24 2
    36   20   22 2
    37   21   23 1
    38   22   38 1
    39   22   23 1
    40   23   24 1
@<TRIPOS>MOLECULE
ZINC23141834
   39    41     0     0     0
SMALL
USER_CHARGES

@<TRIPOS>ATOM
      1 C1         -0.0167    1.3931    0.0253 C.ar      1 <0>        -0.0314
      2 C2          1.1670    2.0961    0.0177 C.ar      1 <0>        -0.1688
      3 C3          2.3810    1.4170   -0.0135 C.ar      1 <0>         0.1810
      4 C4          2.4032    0.0261   -0.0372 C.ar      1 <0>        -0.1661
      5 C5          1.2232   -0.6830   -0.0298 C.ar      1 <0>        -0.0541
      6 C6          0.0021   -0.0041    0.0020 C.ar      1 <0>        -0.1509
      7 C7         -1.2650   -0.7610    0.0105 C.2       1 <0>         0.5503
      8 O1         -2.3266   -0.1690    0.0378 O.2       1 <0>        -0.5533
      9 N1         -1.2452   -2.1084   -0.0119 N.am      1 <0>        -0.7015
     10 C8         -2.5029   -2.8597   -0.0034 C.3       1 <0>         0.1590
     11 C9         -2.2058   -4.3369   -0.0326 C.2       1 <0>         0.4163
     12 O2         -3.2166   -5.2273   -0.0305 O.3       1 <0>        -0.6615
     13 N2         -0.9720   -4.7525   -0.0598 N.2       1 <0>        -0.6707
     14 C10        -0.7032   -6.0890   -0.0862 C.2       1 <0>         0.5195
     15 N3         -1.5947   -7.0625   -0.0879 N.2       1 <0>        -0.5611
     16 C11        -0.9737   -8.2396   -0.1173 C.2       1 <0>         0.1925
     17 N4          0.3187   -8.0447   -0.1349 N.2       1 <0>        -0.3773
     18 N5          0.5262   -6.6559   -0.1213 N.pl3     1 <0>        -0.5171
     19 N6          3.5780    2.1321   -0.0216 N.am      1 <0>        -0.5580
     20 C12         4.9091    1.5196    0.0612 C.3       1 <0>         0.0917
     21 C13         5.8948    2.6096   -0.4149 C.3       1 <0>        -0.1315
     22 C14         5.1106    3.9040   -0.0978 C.3       1 <0>        -0.1531
     23 C15         3.6613    3.4707   -0.1120 C.2       1 <0>         0.5138
     24 O3          2.7124    4.2219   -0.1907 O.2       1 <0>        -0.5064
     25 H1         -0.9586    1.9207    0.0536 H         1 <0>         0.1402
     26 H2          1.1532    3.1758    0.0356 H         1 <0>         0.1585
     27 H3          3.3472   -0.4980   -0.0617 H         1 <0>         0.1306
     28 H4          1.2411   -1.7626   -0.0489 H         1 <0>         0.1379
     29 H5         -0.3982   -2.5807   -0.0337 H         1 <0>         0.4146
     30 H6         -3.0635   -2.6196    0.9000 H         1 <0>         0.0829
     31 H7         -3.0929   -2.5904   -0.8795 H         1 <0>         0.0829
     32 H8         -1.4607   -9.2035   -0.1250 H         1 <0>         0.1931
     33 H9          5.1299    1.2347    1.0899 H         1 <0>         0.0842
     34 H10         4.9650    0.6490   -0.5923 H         1 <0>         0.0903
     35 H11         6.8252    2.5685    0.1515 H         1 <0>         0.0969
     36 H12         6.0867    2.5218   -1.4843 H         1 <0>         0.0865
     37 H13         5.3885    4.2876    0.8839 H         1 <0>         0.1101
     38 H14         5.2886    4.6559   -0.8666 H         1 <0>         0.1073
     39 H15         1.3796   -6.1949   -0.1329 H         1 <0>         0.4227
@<TRIPOS>BOND
     1    1    6 ar
     2    1    2 ar
     3    1   25 1
     4    2    3 ar
     5    2   26 1
     6    3    4 ar
     7    3   19 1
     8    4    5 ar
     9    4   27 1
    10    5    6 ar
    11    5   28 1
    12    6    7 1
    13    7    8 2
    14    7    9 am
    15    9   10 1
    16    9   29 1
    17   10   11 1
    18   10   30 1
    19   10   31 1
    20   11   12 1
    21   11   13 2
    22   13   14 1
    23   14   15 2
    24   14   18 1
    25   15   16 1
    26   16   32 1
    27   16   17 2
    28   17   18 1
    29   18   39 1
    30   19   23 am
    31   19   20 1
    32   20   21 1
    33   20   33 1
    34   20   34 1
    35   21   22 1
    36   21   35 1
    37   21   36 1
    38   22   23 1
    39   22   37 1
    40   22   38 1
    41   23   24 2
@<TRIPOS>MOLECULE
ZINC08497075
   43    44     0     0     0
SMALL
USER_CHARGES

@<TRIPOS>ATOM
      1 C1         -0.0184    1.5028    0.0103 C.3       1 <0>        -0.1275
      2 C2          0.0021   -0.0041    0.0020 C.2       1 <0>         0.1657
      3 C3          0.0060   -0.7049   -1.2003 C.2       1 <0>        -0.2725
      4 C4          0.0253   -2.1230   -1.1781 C.2       1 <0>         0.5750
      5 O1          0.0289   -2.7447   -2.2261 O.2       1 <0>        -0.5584
      6 N1          0.0402   -2.7862   -0.0077 N.am      1 <0>        -0.5273
      7 C5          0.0362   -2.1231    1.1748 C.2       1 <0>         0.4965
      8 C6          0.0233   -0.7246    1.2077 C.2       1 <0>        -0.1512
      9 N2          0.0257   -0.0665    2.3999 N.2       1 <0>        -0.1441
     10 N3          0.0453   -0.7328    3.5044 N.2       1 <0>        -0.3009
     11 C7          0.0477   -0.0719    4.7018 C.ar      1 <0>         0.1771
     12 C8          0.0232    1.3247    4.7327 C.ar      1 <0>        -0.1804
     13 C9          0.0253    1.9844    5.9439 C.ar      1 <0>        -0.0097
     14 C10         0.0521    1.2665    7.1266 C.ar      1 <0>        -0.7079
     15 C11         0.0769   -0.1170    7.1037 C.ar      1 <0>        -0.0117
     16 C12         0.0688   -0.7903    5.9000 C.ar      1 <0>        -0.1254
     17 S1          0.0552    2.1179    8.6692 S.o2      1 <0>         2.7034
     18 O2          0.6331    1.2339    9.6199 O.2       1 <0>        -0.9732
     19 O3          0.5801    3.4140    8.4167 O.2       1 <0>        -0.9737
     20 N4         -1.5255    2.3264    9.1166 N.pl3     1 <0>        -1.2530
     21 O4          0.0510   -2.8176    2.3293 O.3       1 <0>        -0.5493
     22 C13         0.0605   -4.2511   -0.0111 C.3       1 <0>         0.1128
     23 C14         1.5099   -4.7410   -0.0193 C.3       1 <0>         0.0883
     24 H1          2.0388   -4.2970   -0.8627 H         1 <0>         0.0545
     25 C15         1.5323   -6.2654   -0.1485 C.3       1 <0>        -0.1794
     26 O5          2.1494   -4.3569    1.1996 O.3       1 <0>        -0.5404
     27 C16        -0.0098   -0.0014   -2.4474 C.1       1 <0>         0.3105
     28 N5         -0.0223    0.5567   -3.4368 N.1       1 <0>        -0.4724
     29 H2          1.0042    1.8801    0.0026 H         1 <0>         0.0870
     30 H3         -0.5455    1.8639   -0.8728 H         1 <0>         0.0696
     31 H4         -0.5286    1.8543    0.9071 H         1 <0>         0.0867
     32 H5          0.0030    1.8864    3.8104 H         1 <0>         0.1367
     33 H6          0.0064    3.0640    5.9694 H         1 <0>         0.1334
     34 H7          0.0985   -0.6708    8.0306 H         1 <0>         0.1385
     35 H8          0.0833   -1.8700    5.8836 H         1 <0>         0.1381
     36 H9         -2.2382    1.9952    8.5480 H         1 <0>         0.4168
     37 H10        -1.7388    2.7796    9.9473 H         1 <0>         0.4161
     38 H11        -0.4439   -4.6235    0.8805 H         1 <0>         0.0990
     39 H12        -0.4526   -4.6195   -0.8994 H         1 <0>         0.0991
     40 H13         1.0034   -6.7093    0.6949 H         1 <0>         0.0651
     41 H14         1.0445   -6.5584   -1.0782 H         1 <0>         0.0655
     42 H15         2.5649   -6.6144   -0.1543 H         1 <0>         0.0577
     43 H16         3.0733   -4.6351    1.2636 H         1 <0>         0.3651
@<TRIPOS>BOND
     1    1    2 1
     2    1   29 1
     3    1   30 1
     4    1   31 1
     5    2    8 1
     6    2    3 2
     7    3    4 1
     8    3   27 1
     9    4    5 2
    10    4    6 am
    11    6    7 1
    12    6   22 1
    13    7    8 2
    14    7   21 1
    15    8    9 1
    16    9   10 2
    17   10   11 1
    18   11   16 ar
    19   11   12 ar
    20   12   13 ar
    21   12   32 1
    22   13   14 ar
    23   13   33 1
    24   14   15 ar
    25   14   17 1
    26   15   16 ar
    27   15   34 1
    28   16   35 1
    29   17   18 2
    30   17   19 2
    31   17   20 1
    32   20   36 1
    33   20   37 1
    34   22   23 1
    35   22   38 1
    36   22   39 1
    37   23   24 1
    38   23   25 1
    39   23   26 1
    40   25   40 1
    41   25   41 1
    42   25   42 1
    43   26   43 1
    44   27   28 3
@<TRIPOS>MOLECULE
ZINC65309378
   41    44     0     0     0
SMALL
USER_CHARGES

@<TRIPOS>ATOM
      1 C1          0.1575    1.3761    0.6443 C.ar      1 <0>        -0.1105
      2 C2          1.1646    2.1035    0.0468 C.ar      1 <0>        -0.0879
      3 C3          2.2126    1.4395   -0.5881 C.ar      1 <0>        -0.1074
      4 C4          2.2366    0.0273   -0.6155 C.ar      1 <0>        -0.0985
      5 C5          1.2038   -0.6940   -0.0024 C.ar      1 <0>         0.1785
      6 C6          0.1739   -0.0102    0.6217 C.ar      1 <0>        -0.1259
      7 N1          1.2127   -2.0902   -0.0207 N.am      1 <0>        -0.6324
      8 C7          0.0558   -2.7729    0.0885 C.2       1 <0>         0.5050
      9 O1         -1.0008   -2.1775    0.1020 O.2       1 <0>        -0.5405
     10 C8          0.0750   -4.2761    0.1937 C.3       1 <0>         0.1045
     11 N2         -1.2979   -4.7757    0.3013 N.am      1 <0>        -0.7138
     12 C9         -1.5269   -6.0997    0.4069 C.2       1 <0>         0.5560
     13 O2         -0.5939   -6.8796    0.4130 O.2       1 <0>        -0.5008
     14 C10        -2.9084   -6.6024    0.5152 C.ar      1 <0>        -0.0464
     15 C11        -3.9814   -5.7145    0.5030 C.ar      1 <0>        -0.1210
     16 C12        -5.2795   -6.1853    0.6046 C.ar      1 <0>         0.1127
     17 C13        -5.5299   -7.5410    0.7193 C.ar      1 <0>        -0.1229
     18 C14        -4.4781   -8.4450    0.7333 C.ar      1 <0>         0.0591
     19 C15        -3.1545   -7.9868    0.6260 C.ar      1 <0>         0.0918
     20 N3         -2.3553   -9.0719    0.6610 N.2       1 <0>        -0.4635
     21 C16        -3.0789  -10.1491    0.7750 C.2       1 <0>         0.2680
     22 N4         -4.3966   -9.8206    0.8330 N.pl3     1 <0>        -0.5993
     23 H1         -5.1407  -10.4371    0.9179 H         1 <0>         0.4272
     24 F1         -6.3109   -5.3129    0.5919 F         1 <0>        -0.1287
     25 C17         3.3510   -0.6422   -1.2909 C.2       1 <0>         0.3993
     26 O3          3.4028   -1.9978   -1.3350 O.3       1 <0>        -0.7053
     27 N5          4.2932    0.0656   -1.8502 N.2       1 <0>        -0.4062
     28 N6          4.2931    1.4607   -1.8373 N.am      1 <0>        -0.5143
     29 H2          5.0196    1.9366   -2.2692 H         1 <0>         0.4177
     30 C18         3.3100    2.1659   -1.2404 C.2       1 <0>         0.5097
     31 O4          3.3318    3.3842   -1.2428 O.2       1 <0>        -0.5825
     32 H3         -0.6516    1.8921    1.1399 H         1 <0>         0.1271
     33 H4          1.1414    3.1830    0.0702 H         1 <0>         0.1326
     34 H5         -0.6241   -0.5622    1.0958 H         1 <0>         0.1466
     35 H6          2.0515   -2.5687   -0.1119 H         1 <0>         0.4331
     36 H7          0.5461   -4.6966   -0.6948 H         1 <0>         0.1085
     37 H8          0.6394   -4.5712    1.0783 H         1 <0>         0.1057
     38 H9         -2.0422   -4.1537    0.2965 H         1 <0>         0.4093
     39 H10        -3.8000   -4.6536    0.4143 H         1 <0>         0.1517
     40 H11        -6.5467   -7.8962    0.7986 H         1 <0>         0.1410
     41 H12        -2.6886  -11.1548    0.8258 H         1 <0>         0.2228
@<TRIPOS>BOND
     1    1    6 ar
     2    1    2 ar
     3    1   32 1
     4    2    3 ar
     5    2   33 1
     6    3   30 1
     7    3    4 ar
     8    4    5 ar
     9    4   25 1
    10    5    6 ar
    11    5    7 1
    12    6   34 1
    13    7    8 am
    14    7   35 1
    15    8    9 2
    16    8   10 1
    17   10   11 1
    18   10   36 1
    19   10   37 1
    20   11   12 am
    21   11   38 1
    22   12   13 2
    23   12   14 1
    24   14   19 ar
    25   14   15 ar
    26   15   16 ar
    27   15   39 1
    28   16   17 ar
    29   16   24 1
    30   17   18 ar
    31   17   40 1
    32   18   22 1
    33   18   19 ar
    34   19   20 1
    35   20   21 2
    36   21   22 1
    37   21   41 1
    38   22   23 1
    39   25   26 1
    40   25   27 2
    41   27   28 1
    42   28   29 1
    43   28   30 am
    44   30   31 2
@<TRIPOS>MOLECULE
ZINC02491957
   36    37     0     0     0
SMALL
USER_CHARGES
7-ethyl-8-(2-hydroxyethylamino)-1,3-dimethyl-purine-2,6-dione
@<TRIPOS>ATOM
      1 C1         -3.1917    1.5241    3.8933 C.3       1 <0>        -0.1673
      2 C2         -1.9579    2.4266    3.8277 C.3       1 <0>         0.1048
      3 N1         -0.7602    1.6036    3.6417 N.pl3     1 <0>        -0.4455
      4 C3          0.0340    1.0586    4.6417 C.2       1 <0>        -0.1762
      5 C4          1.0496    0.3599    3.9978 C.2       1 <0>         0.3542
      6 N2          0.8547    0.4862    2.6842 N.2       1 <0>        -0.5383
      7 C5         -0.2120    1.2256    2.4567 C.2       1 <0>         0.5580
      8 N3         -0.6984    1.5583    1.2133 N.pl3     1 <0>        -0.6945
      9 C6         -0.0127    1.0858    0.0080 C.3       1 <0>         0.1423
     10 C7         -0.7527    1.5927   -1.2315 C.3       1 <0>         0.0610
     11 O1         -0.6718    3.0184   -1.2848 O.3       1 <0>        -0.5725
     12 N4          2.0009   -0.2931    4.7650 N.am      1 <0>        -0.5102
     13 C8          1.9332   -0.2439    6.1088 C.2       1 <0>         0.7085
     14 O2          2.7766   -0.8223    6.7668 O.2       1 <0>        -0.5372
     15 N5          0.9559    0.4285    6.7410 N.am      1 <0>        -0.5527
     16 C9          0.0017    1.0830    6.0471 C.2       1 <0>         0.5944
     17 O3         -0.8791    1.6886    6.6324 O.2       1 <0>        -0.5227
     18 C10         0.9261    0.4507    8.2055 C.3       1 <0>         0.0851
     19 C11         3.0814   -1.0376    4.1135 C.3       1 <0>         0.0866
     20 H1         -3.2790    0.9601    2.9646 H         1 <0>         0.0590
     21 H2         -3.0922    0.8329    4.7302 H         1 <0>         0.0676
     22 H3         -4.0827    2.1364    4.0317 H         1 <0>         0.0813
     23 H4         -1.8705    2.9906    4.7564 H         1 <0>         0.1078
     24 H5         -2.0574    3.1178    2.9908 H         1 <0>         0.0908
     25 H6         -1.4954    2.1056    1.1349 H         1 <0>         0.4152
     26 H7          0.0021   -0.0041    0.0020 H         1 <0>         0.0871
     27 H8          1.0099    1.4631    0.0003 H         1 <0>         0.0799
     28 H9         -0.2958    1.1691   -2.1259 H         1 <0>         0.0707
     29 H10        -1.7985    1.2898   -1.1795 H         1 <0>         0.0551
     30 H11        -1.1204    3.4096   -2.0469 H         1 <0>         0.3855
     31 H12         0.3370   -0.3910    8.5697 H         1 <0>         0.0748
     32 H13         1.9431    0.3761    8.5907 H         1 <0>         0.0948
     33 H14         0.4762    1.3833    8.5457 H         1 <0>         0.0939
     34 H15         3.7268   -1.4800    4.8723 H         1 <0>         0.1021
     35 H16         2.6563   -1.8265    3.4931 H         1 <0>         0.0782
     36 H17         3.6651   -0.3600    3.4903 H         1 <0>         0.0785
@<TRIPOS>BOND
     1    1    2 1
     2    1   20 1
     3    1   21 1
     4    1   22 1
     5    2    3 1
     6    2   23 1
     7    2   24 1
     8    3    7 1
     9    3    4 1
    10    4   16 1
    11    4    5 2
    12    5    6 1
    13    5   12 1
    14    6    7 2
    15    7    8 1
    16    8    9 1
    17    8   25 1
    18    9   10 1
    19    9   26 1
    20    9   27 1
    21   10   11 1
    22   10   28 1
    23   10   29 1
    24   11   30 1
    25   12   13 am
    26   12   19 1
    27   13   14 2
    28   13   15 am
    29   15   16 am
    30   15   18 1
    31   16   17 2
    32   18   31 1
    33   18   32 1
    34   18   33 1
    35   19   34 1
    36   19   35 1
    37   19   36 1
@<TRIPOS>MOLECULE
ZINC36722164
   26    28     0     0     0
SMALL
USER_CHARGES

@<TRIPOS>ATOM
      1 C1         -0.0167    1.3777    0.0096 C.ar      1 <0>        -0.0939
      2 C2          1.1671    2.0883    0.0021 C.ar      1 <0>        -0.0743
      3 C3          2.3859    1.4120   -0.0131 C.ar      1 <0>        -0.0421
      4 C4          2.4050    0.0191   -0.0207 C.ar      1 <0>        -0.0523
      5 C5          1.2122   -0.6862   -0.0131 C.ar      1 <0>         0.1250
      6 C6          0.0021   -0.0041    0.0020 C.ar      1 <0>        -0.0975
      7 N1          1.2266   -2.0889   -0.0212 N.pl3     1 <0>        -0.3313
      8 C7          0.1620   -2.9201   -0.0211 C.2       1 <0>         0.2289
      9 N2          0.6242   -4.1430   -0.0310 N.2       1 <0>        -0.3259
     10 N3          1.9084   -4.1417   -0.0374 N.2       1 <0>        -0.0294
     11 N4          2.3525   -2.9311   -0.0374 N.2       1 <0>        -0.0718
     12 C8          3.6587    2.1733   -0.0216 C.ar      1 <0>         0.2395
     13 C9          3.6579    3.5670    0.0960 C.ar      1 <0>        -0.0620
     14 N5          4.8087    4.2138    0.0852 N.ar      1 <0>        -0.1397
     15 N6          5.9187    3.5734   -0.0318 N.ar      1 <0>        -0.3323
     16 C10         5.9484    2.2514   -0.1451 C.ar      1 <0>         0.5140
     17 N7          4.8271    1.5435   -0.1360 N.ar      1 <0>        -0.5174
     18 N8          7.1652    1.6030   -0.2689 N.pl3     1 <0>        -0.8054
     19 H1         -0.9600    1.9033    0.0260 H         1 <0>         0.1515
     20 H2          1.1487    3.1681    0.0077 H         1 <0>         0.1465
     21 H3          3.3467   -0.5096   -0.0329 H         1 <0>         0.1561
     22 H4         -0.9267   -0.5552    0.0079 H         1 <0>         0.1429
     23 H5         -0.8779   -2.6286   -0.0137 H         1 <0>         0.2416
     24 H6          2.7278    4.1071    0.1941 H         1 <0>         0.1874
     25 H7          7.9892    2.1147   -0.2726 H         1 <0>         0.4225
     26 H8          7.1937    0.6370   -0.3521 H         1 <0>         0.4191
@<TRIPOS>BOND
     1    1    6 ar
     2    1    2 ar
     3    1   19 1
     4    2    3 ar
     5    2   20 1
     6    3    4 ar
     7    3   12 1
     8    4    5 ar
     9    4   21 1
    10    5    6 ar
    11    5    7 1
    12    6   22 1
    13    7   11 1
    14    7    8 1
    15    8    9 2
    16    8   23 1
    17    9   10 1
    18   10   11 2
    19   12   17 ar
    20   12   13 ar
    21   13   14 ar
    22   13   24 1
    23   14   15 ar
    24   15   16 ar
    25   16   17 ar
    26   16   18 1
    27   18   25 1
    28   18   26 1
@<TRIPOS>MOLECULE
ZINC43359824
   36    39     0     0     0
SMALL
USER_CHARGES

@<TRIPOS>ATOM
      1 C1         -0.0189    1.5400    0.0105 C.3       1 <0>        -0.1289
      2 C2          1.4897    1.8771   -0.0021 C.3       1 <0>        -0.0435
      3 C3          2.1493    0.6584    0.6061 C.2       1 <0>         0.1687
      4 N1          3.2641    0.2387    1.1434 N.2       1 <0>        -0.2766
      5 N2          3.1457   -0.9983    1.4736 N.2       1 <0>        -0.2583
      6 C4          1.9525   -1.4242    1.1606 C.2       1 <0>         0.1664
      7 N3          1.2883   -0.3837    0.5990 N.pl3     1 <0>        -0.4867
      8 C5          0.0021   -0.0041    0.0020 C.3       1 <0>         0.0986
      9 C6          1.4134   -2.8140    1.3812 C.3       1 <0>         0.2327
     10 N4          0.7768   -2.8875    2.6987 N.am      1 <0>        -0.7333
     11 C7          0.2204   -4.0423    3.1148 C.2       1 <0>         0.7046
     12 O1          0.2467   -5.0232    2.3968 O.2       1 <0>        -0.5176
     13 N5         -0.3652   -4.1099    4.3268 N.am      1 <0>        -0.6207
     14 C8         -0.9394   -5.3016    4.7562 C.2       1 <0>         0.2473
     15 N6         -1.0081   -6.4627    4.1352 N.2       1 <0>        -0.2956
     16 N7         -1.5676   -7.4676    4.6585 N.2       1 <0>        -0.2337
     17 C9         -2.0981   -7.3533    5.8594 C.2       1 <0>         0.0627
     18 S1         -1.7229   -5.6412    6.2099 S.3       1 <0>         0.0856
     19 C10        -2.8145   -8.3777    6.7010 C.3       1 <0>        -0.0822
     20 C11        -2.8021   -9.8274    6.2121 C.3       1 <0>        -0.1454
     21 C12        -4.0869   -9.0013    6.1238 C.3       1 <0>        -0.1531
     22 H1         -0.4954    1.9186    0.9148 H         1 <0>         0.0917
     23 H2         -0.5126    1.9282   -0.8804 H         1 <0>         0.1088
     24 H3          1.8378    2.0292   -1.0237 H         1 <0>         0.1061
     25 H4          1.6880    2.7606    0.6047 H         1 <0>         0.1072
     26 H5         -0.8211   -0.3955    0.5998 H         1 <0>         0.0981
     27 H6         -0.0634   -0.3763   -1.0204 H         1 <0>         0.1002
     28 H7          0.6792   -3.0457    0.6096 H         1 <0>         0.0918
     29 H8          2.2311   -3.5330    1.3322 H         1 <0>         0.1106
     30 H9          0.7558   -2.1049    3.2715 H         1 <0>         0.4018
     31 H10        -0.3862   -3.3274    4.8996 H         1 <0>         0.4250
     32 H11        -2.7804   -8.2089    7.7773 H         1 <0>         0.1367
     33 H12        -2.2757  -10.0402    5.2817 H         1 <0>         0.1097
     34 H13        -2.7595  -10.6127    6.9668 H         1 <0>         0.1097
     35 H14        -4.8896   -9.2431    6.8204 H         1 <0>         0.1100
     36 H15        -4.4057   -8.6706    5.1353 H         1 <0>         0.1016
@<TRIPOS>BOND
     1    1    8 1
     2    1    2 1
     3    1   22 1
     4    1   23 1
     5    2    3 1
     6    2   24 1
     7    2   25 1
     8    3    7 1
     9    3    4 2
    10    4    5 1
    11    5    6 2
    12    6    7 1
    13    6    9 1
    14    7    8 1
    15    8   26 1
    16    8   27 1
    17    9   10 1
    18    9   28 1
    19    9   29 1
    20   10   11 am
    21   10   30 1
    22   11   12 2
    23   11   13 am
    24   13   14 1
    25   13   31 1
    26   14   18 1
    27   14   15 2
    28   15   16 1
    29   16   17 2
    30   17   18 1
    31   17   19 1
    32   19   21 1
    33   19   20 1
    34   19   32 1
    35   20   21 1
    36   20   33 1
    37   20   34 1
    38   21   35 1
    39   21   36 1
@<TRIPOS>MOLECULE
ZINC49369924
   39    39     0     0     0
SMALL
USER_CHARGES

@<TRIPOS>ATOM
      1 C1         -0.0204    1.5039   -0.0036 C.3       1 <0>        -0.1749
      2 C2          0.0005   -0.0029   -0.0122 C.2       1 <0>         0.5128
      3 O1          1.0590   -0.5946   -0.0299 O.2       1 <0>        -0.5430
      4 N1         -1.1572   -0.6930   -0.0003 N.am      1 <0>        -0.7310
      5 C3         -1.1369   -2.1578   -0.0087 C.3       1 <0>         0.1066
      6 C4         -2.5720   -2.6878    0.0079 C.3       1 <0>         0.1276
      7 N2         -2.5517   -4.1527   -0.0004 N.am      1 <0>        -0.7440
      8 C5         -3.7094   -4.8427    0.0115 C.2       1 <0>         0.7129
      9 O2         -4.7673   -4.2535    0.1206 O.2       1 <0>        -0.5819
     10 N3         -3.6943   -6.1860   -0.0976 N.am      1 <0>        -0.6301
     11 C6         -2.4219   -6.9213   -0.1091 C.3       1 <0>         0.0967
     12 C7         -2.4563   -7.9777    1.0023 C.3       1 <0>         0.1129
     13 N4         -3.7121   -8.7334    0.8932 N.am      1 <0>        -0.5955
     14 C8         -4.9845   -7.9980    0.9047 C.3       1 <0>         0.0972
     15 C9         -4.9503   -6.9421   -0.2011 C.3       1 <0>         0.1146
     16 C10        -3.6970  -10.0766    0.7841 C.2       1 <0>         0.6502
     17 O3         -2.6387  -10.6736    0.7753 O.2       1 <0>        -0.5674
     18 O4         -4.8546  -10.7570    0.6849 O.3       1 <0>        -0.3640
     19 C11        -4.7639  -12.1786    0.5723 C.3       1 <0>         0.0532
     20 H1          1.0020    1.8815   -0.0154 H         1 <0>         0.0945
     21 H2         -0.5513    1.8650   -0.8845 H         1 <0>         0.0902
     22 H3         -0.5271    1.8552    0.8953 H         1 <0>         0.0903
     23 H4         -2.0038   -0.2197    0.0138 H         1 <0>         0.4054
     24 H5         -0.6302   -2.5090   -0.9076 H         1 <0>         0.0749
     25 H6         -0.6060   -2.5188    0.8722 H         1 <0>         0.0750
     26 H7         -3.0787   -2.3366    0.9068 H         1 <0>         0.0763
     27 H8         -3.1029   -2.3268   -0.8730 H         1 <0>         0.0748
     28 H9         -1.7051   -4.6259   -0.0146 H         1 <0>         0.3984
     29 H10        -2.2906   -7.4101   -1.0745 H         1 <0>         0.0810
     30 H11        -1.5982   -6.2299    0.0687 H         1 <0>         0.0930
     31 H12        -1.6104   -8.6556    0.8889 H         1 <0>         0.1118
     32 H13        -2.4077   -7.4874    1.9746 H         1 <0>         0.0802
     33 H14        -5.8082   -8.6894    0.7268 H         1 <0>         0.1079
     34 H15        -5.1158   -7.5093    1.8700 H         1 <0>         0.0789
     35 H16        -5.7960   -6.2645   -0.0840 H         1 <0>         0.1113
     36 H17        -5.0031   -7.4324   -1.1731 H         1 <0>         0.0743
     37 H18        -4.2619  -12.5815    1.4519 H         1 <0>         0.0618
     38 H19        -5.7658  -12.6020    0.4999 H         1 <0>         0.1055
     39 H20        -4.1950  -12.4368   -0.3209 H         1 <0>         0.0618
@<TRIPOS>BOND
     1    1    2 1
     2    1   20 1
     3    1   21 1
     4    1   22 1
     5    2    3 2
     6    2    4 am
     7    4    5 1
     8    4   23 1
     9    5    6 1
    10    5   24 1
    11    5   25 1
    12    6    7 1
    13    6   26 1
    14    6   27 1
    15    7    8 am
    16    7   28 1
    17    8    9 2
    18    8   10 am
    19   10   15 1
    20   10   11 1
    21   11   12 1
    22   11   29 1
    23   11   30 1
    24   12   13 1
    25   12   31 1
    26   12   32 1
    27   13   14 1
    28   13   16 am
    29   14   15 1
    30   14   33 1
    31   14   34 1
    32   15   35 1
    33   15   36 1
    34   16   17 2
    35   16   18 1
    36   18   19 1
    37   19   37 1
    38   19   38 1
    39   19   39 1
@<TRIPOS>MOLECULE
ZINC61537340
   27    28     0     0     0
SMALL
USER_CHARGES

@<TRIPOS>ATOM
      1 C1         -0.0178    1.4608    0.0101 C.3       1 <0>         0.0959
      2 N1          0.0021   -0.0041    0.0020 N.pl3     1 <0>        -0.5436
      3 C2          0.0241   -0.7433    1.2666 C.3       1 <0>         0.1031
      4 C3         -1.3889   -1.0161    1.7137 C.2       1 <0>         0.4999
      5 O1         -2.3225   -0.6310    1.0421 O.2       1 <0>        -0.5312
      6 N2         -1.6152   -1.6881    2.8599 N.am      1 <0>        -0.8513
      7 C4          0.0000   -0.6875   -1.1968 C.ar      1 <0>         0.6444
      8 N3         -0.0144   -0.0176   -2.3449 N.ar      1 <0>        -0.5814
      9 C5         -0.0159   -0.6779   -3.4953 C.ar      1 <0>         0.6609
     10 N4         -0.0029   -2.0066   -3.4981 N.ar      1 <0>        -0.5992
     11 C6          0.0114   -2.6725   -2.3546 C.ar      1 <0>         0.4775
     12 N5          0.0181   -2.0177   -1.2052 N.ar      1 <0>        -0.5962
     13 Cl1         0.0278   -4.4084   -2.3629 Cl        1 <0>         0.0633
     14 N6         -0.0315    0.0214   -4.7000 N.pl3     1 <0>        -0.3337
     15 C7         -0.0404   -0.5062   -5.9420 C.2       1 <0>         0.3107
     16 N7         -0.0551    0.4804   -6.8000 N.2       1 <0>        -0.5249
     17 C8         -0.0560    1.6451   -6.1507 C.2       1 <0>         0.2195
     18 N8         -0.0472    1.4161   -4.8644 N.2       1 <0>        -0.2776
     19 H1          1.0048    1.8381    0.0023 H         1 <0>         0.0674
     20 H2         -0.5450    1.8219   -0.8730 H         1 <0>         0.0908
     21 H3         -0.5280    1.8123    0.9069 H         1 <0>         0.0790
     22 H4          0.5496   -1.6879    1.1262 H         1 <0>         0.1259
     23 H5          0.5371   -0.1514    2.0246 H         1 <0>         0.1218
     24 H6         -0.8686   -1.9961    3.3970 H         1 <0>         0.4036
     25 H7         -2.5248   -1.8637    3.1477 H         1 <0>         0.4055
     26 H8         -0.0358   -1.5586   -6.1847 H         1 <0>         0.2365
     27 H9         -0.0667    2.6208   -6.6137 H         1 <0>         0.2332
@<TRIPOS>BOND
     1    1    2 1
     2    1   19 1
     3    1   20 1
     4    1   21 1
     5    2    3 1
     6    2    7 1
     7    3    4 1
     8    3   22 1
     9    3   23 1
    10    4    5 2
    11    4    6 am
    12    6   24 1
    13    6   25 1
    14    7   12 ar
    15    7    8 ar
    16    8    9 ar
    17    9   10 ar
    18    9   14 1
    19   10   11 ar
    20   11   12 ar
    21   11   13 1
    22   14   18 1
    23   14   15 1
    24   15   16 2
    25   15   26 1
    26   16   17 1
    27   17   18 2
    28   17   27 1
@<TRIPOS>MOLECULE
ZINC02541469
   45    46     0     0     0
SMALL
USER_CHARGES
5-oxo-1-(1-tert-butoxycarbonyl-4-piperidyl)-pyrrolidine-3-carboxylic acid
@<TRIPOS>ATOM
      1 C1         -4.5683   -4.7963    0.3975 C.3       1 <0>        -0.1836
      2 C2         -5.5743   -3.9242    1.1515 C.3       1 <0>         0.1351
      3 C3         -5.7633   -4.4717    2.5676 C.3       1 <0>        -0.1408
      4 C4         -6.9154   -3.9400    0.4153 C.3       1 <0>        -0.1817
      5 O1         -5.0768   -2.5619    1.2217 O.3       1 <0>        -0.3611
      6 C5         -4.8555   -1.9310    0.0531 C.2       1 <0>         0.6562
      7 O2         -5.0722   -2.5031   -0.9968 O.2       1 <0>        -0.5738
      8 N1         -4.3937   -0.6648    0.0477 N.am      1 <0>        -0.5931
      9 C6         -4.1473    0.0368   -1.2195 C.3       1 <0>         0.1342
     10 C7         -2.7104    0.5679   -1.2178 C.3       1 <0>        -0.1502
     11 C8         -2.4897    1.4268    0.0294 C.3       1 <0>         0.1650
     12 C9         -2.6897    0.5707    1.2821 C.3       1 <0>        -0.1530
     13 C10        -4.1265    0.0399    1.3089 C.3       1 <0>         0.1183
     14 N2         -1.1266    1.9634    0.0175 N.am      1 <0>        -0.6090
     15 C11        -0.7999    3.3942    0.0173 C.3       1 <0>         0.1144
     16 C12         0.6854    3.4795    0.4332 C.3       1 <0>        -0.1441
     17 H1          1.1969    4.2767   -0.1062 H         1 <0>         0.0960
     18 C13         1.2138    2.0919    0.0017 C.3       1 <0>        -0.1372
     19 C14        -0.0144    1.2086    0.0087 C.2       1 <0>         0.5243
     20 O3          0.0021   -0.0041    0.0020 O.2       1 <0>        -0.5451
     21 C15         0.8185    3.6681    1.9224 C.2       1 <0>         0.4697
     22 O4         -0.1666    3.8436    2.5996 O.co2     1 <0>        -0.6314
     23 H2         -3.6128   -4.7849    0.9220 H         1 <0>         0.0605
     24 H3         -4.9418   -5.8189    0.3448 H         1 <0>         0.0682
     25 H4         -4.4336   -4.4062   -0.6113 H         1 <0>         0.0873
     26 H5         -6.4799   -3.8504    3.1047 H         1 <0>         0.0660
     27 H6         -6.1367   -5.4944    2.5149 H         1 <0>         0.0788
     28 H7         -4.8078   -4.4604    3.0920 H         1 <0>         0.0675
     29 H8         -6.7808   -3.5500   -0.5935 H         1 <0>         0.0871
     30 H9         -7.2889   -4.9627    0.3626 H         1 <0>         0.0682
     31 H10        -7.6321   -3.3188    0.9524 H         1 <0>         0.0582
     32 H11        -4.8443    0.8690   -1.3179 H         1 <0>         0.0722
     33 H12        -4.2812   -0.6525   -2.0533 H         1 <0>         0.0977
     34 H13        -2.5448    1.1722   -2.1097 H         1 <0>         0.0790
     35 H14        -2.0126   -0.2695   -1.2111 H         1 <0>         0.0854
     36 H15        -3.2040    2.2501    0.0344 H         1 <0>         0.0877
     37 H16        -1.9925   -0.2670    1.2654 H         1 <0>         0.0834
     38 H17        -2.5094    1.1770    2.1697 H         1 <0>         0.0873
     39 H18        -4.8218    0.8724    1.4167 H         1 <0>         0.0723
     40 H19        -4.2484   -0.6486    2.1451 H         1 <0>         0.0939
     41 H20        -1.4238    3.9263    0.7355 H         1 <0>         0.0924
     42 H21        -0.9365    3.8098   -0.9810 H         1 <0>         0.0587
     43 H22         1.9512    1.7255    0.7159 H         1 <0>         0.1071
     44 H23         1.6425    2.1413   -0.9992 H         1 <0>         0.0937
     45 O5          2.0315    3.6411    2.4966 O.co2     1 <0>        -0.7618
@<TRIPOS>BOND
     1    1    2 1
     2    1   23 1
     3    1   24 1
     4    1   25 1
     5    2    3 1
     6    2    4 1
     7    2    5 1
     8    3   26 1
     9    3   27 1
    10    3   28 1
    11    4   29 1
    12    4   30 1
    13    4   31 1
    14    5    6 1
    15    6    7 2
    16    6    8 am
    17    8   13 1
    18    8    9 1
    19    9   10 1
    20    9   32 1
    21    9   33 1
    22   10   11 1
    23   10   34 1
    24   10   35 1
    25   11   12 1
    26   11   14 1
    27   11   36 1
    28   12   13 1
    29   12   37 1
    30   12   38 1
    31   13   39 1
    32   13   40 1
    33   14   19 am
    34   14   15 1
    35   15   16 1
    36   15   41 1
    37   15   42 1
    38   16   17 1
    39   16   18 1
    40   16   21 1
    41   18   19 1
    42   18   43 1
    43   18   44 1
    44   19   20 2
    45   21   22 2
    46   21   45 1
@<TRIPOS>MOLECULE
ZINC37332196
   29    30     0     0     0
SMALL
USER_CHARGES

@<TRIPOS>ATOM
      1 C1         -0.0167    1.3801    0.0096 C.2       1 <0>        -0.1075
      2 C2          1.3130    1.8049   -0.0008 C.2       1 <0>        -0.1913
      3 C3          2.1029    0.7023   -0.0142 C.2       1 <0>         0.0360
      4 N1          1.3232   -0.3982   -0.0127 N.2       1 <0>        -0.4830
      5 C4          0.0021   -0.0041    0.0020 C.2       1 <0>        -0.1391
      6 C5         -1.1255   -0.8564    0.0086 C.2       1 <0>         0.4452
      7 O1         -2.2440   -0.3836    0.0222 O.2       1 <0>        -0.4815
      8 C6         -0.9398   -2.3519   -0.0012 C.3       1 <0>         0.0243
      9 N2         -2.2538   -3.0086    0.0083 N.3       1 <0>        -0.5264
     10 C7         -2.9585   -2.7587    1.2740 C.3       1 <0>         0.0124
     11 C8         -4.3434   -3.4091    1.2179 C.3       1 <0>         0.0669
     12 O2         -4.1980   -4.8055    0.9456 O.3       1 <0>        -0.3909
     13 C9         -3.5164   -5.0853   -0.2801 C.3       1 <0>         0.0658
     14 C10        -2.1232   -4.4519   -0.2391 C.3       1 <0>         0.0162
     15 N3          1.7785    3.2098    0.0023 N.pl3     1 <0>         0.0867
     16 O3          0.9748    4.1129    0.0148 O.2       1 <0>        -0.2281
     17 O4          2.9625    3.4543   -0.0077 O.3       1 <0>        -0.2252
     18 H1         -0.8931    2.0111    0.0254 H         1 <0>         0.1252
     19 H2          3.1828    0.7052   -0.0245 H         1 <0>         0.1501
     20 H3         -0.3939   -2.6443   -0.8983 H         1 <0>         0.1048
     21 H4         -0.3763   -2.6538    0.8816 H         1 <0>         0.0652
     22 H5         -2.3885   -3.1868    2.0986 H         1 <0>         0.0355
     23 H6         -3.0667   -1.6846    1.4245 H         1 <0>         0.1033
     24 H7         -4.8473   -3.2753    2.1750 H         1 <0>         0.0952
     25 H8         -4.9323   -2.9436    0.4275 H         1 <0>         0.0607
     26 H9         -3.4223   -6.1638   -0.4063 H         1 <0>         0.0949
     27 H10        -4.0813   -4.6685   -1.1140 H         1 <0>         0.0586
     28 H11        -1.6216   -4.6137   -1.1932 H         1 <0>         0.0851
     29 H12        -1.5399   -4.9071    0.5613 H         1 <0>         0.0409
@<TRIPOS>BOND
     1    1    5 2
     2    1    2 1
     3    1   18 1
     4    2    3 2
     5    2   15 1
     6    3    4 1
     7    3   19 1
     8    4    5 1
     9    5    6 1
    10    6    7 2
    11    6    8 1
    12    8    9 1
    13    8   20 1
    14    8   21 1
    15    9   14 1
    16    9   10 1
    17   10   11 1
    18   10   22 1
    19   10   23 1
    20   11   12 1
    21   11   24 1
    22   11   25 1
    23   12   13 1
    24   13   14 1
    25   13   26 1
    26   13   27 1
    27   14   28 1
    28   14   29 1
    29   15   16 2
    30   15   17 1
@<TRIPOS>MOLECULE
ZINC44868103
   34    35     0     0     0
SMALL
USER_CHARGES

@<TRIPOS>ATOM
      1 C1         -0.0807    1.4611    0.0123 C.3       1 <0>         0.0968
      2 N1         -0.0229   -0.0028    0.0032 N.am      1 <0>        -0.5945
      3 C2          0.1204   -0.7380    1.2622 C.3       1 <0>         0.1070
      4 C3         -1.2444   -1.0467    1.8218 C.2       1 <0>         0.5121
      5 O1         -2.2389   -0.6879    1.2274 O.2       1 <0>        -0.5205
      6 N2         -1.3599   -1.7216    2.9827 N.am      1 <0>        -0.6261
      7 C4         -0.2430   -2.2078    3.8059 C.3       1 <0>         0.0972
      8 C5         -0.8533   -2.9405    5.0193 C.3       1 <0>        -0.1312
      9 C6         -2.2732   -3.3169    4.5199 C.3       1 <0>        -0.1341
     10 C7         -2.6271   -2.0888    3.6406 C.3       1 <0>         0.1048
     11 C8         -0.1016   -0.6730   -1.1634 C.2       1 <0>         0.6030
     12 O2         -0.1541   -1.8873   -1.1643 O.2       1 <0>        -0.5599
     13 C9         -0.1240    0.0692   -2.4429 C.ar      1 <0>        -0.1279
     14 C10        -0.3422   -0.6118   -3.6462 C.ar      1 <0>        -0.0416
     15 C11        -0.3542    0.1265   -4.8170 C.ar      1 <0>        -0.2383
     16 C12        -0.1486    1.5018   -4.7263 C.ar      1 <0>         0.3738
     17 O3         -0.1527    2.2635   -5.8471 O.3       1 <0>        -0.6834
     18 N3          0.0508    2.0648   -3.5416 N.ar      1 <0>        -0.3523
     19 N4          0.0572    1.3843   -2.4533 N.ar      1 <0>        -0.1604
     20 H1          0.9146    1.8651   -0.1727 H         1 <0>         0.0620
     21 H2         -0.7621    1.8027   -0.7668 H         1 <0>         0.0983
     22 H3         -0.4375    1.8046    0.9833 H         1 <0>         0.0493
     23 H4          0.6575   -1.6689    1.0803 H         1 <0>         0.1091
     24 H5          0.6770   -0.1310    1.9762 H         1 <0>         0.1043
     25 H6          0.3713   -2.8974    3.2270 H         1 <0>         0.0707
     26 H7          0.3606   -1.3664    4.1460 H         1 <0>         0.0696
     27 H8         -0.2787   -3.8354    5.2584 H         1 <0>         0.0822
     28 H9         -0.9112   -2.2763    5.8817 H         1 <0>         0.0764
     29 H10        -2.2494   -4.2317    3.9278 H         1 <0>         0.0765
     30 H11        -2.9685   -3.4113    5.3541 H         1 <0>         0.0827
     31 H12        -2.9852   -1.2664    4.2600 H         1 <0>         0.0658
     32 H13        -3.3765   -2.3588    2.8966 H         1 <0>         0.0768
     33 H14        -0.4960   -1.6807   -3.6607 H         1 <0>         0.1271
     34 H15        -0.5178   -0.3493   -5.7726 H         1 <0>         0.1248
@<TRIPOS>BOND
     1    1    2 1
     2    1   20 1
     3    1   21 1
     4    1   22 1
     5    2    3 1
     6    2   11 am
     7    3    4 1
     8    3   23 1
     9    3   24 1
    10    4    5 2
    11    4    6 am
    12    6   10 1
    13    6    7 1
    14    7    8 1
    15    7   25 1
    16    7   26 1
    17    8    9 1
    18    8   27 1
    19    8   28 1
    20    9   10 1
    21    9   29 1
    22    9   30 1
    23   10   31 1
    24   10   32 1
    25   11   12 2
    26   11   13 1
    27   13   19 ar
    28   13   14 ar
    29   14   15 ar
    30   14   33 1
    31   15   16 ar
    32   15   34 1
    33   16   17 1
    34   16   18 ar
    35   18   19 ar
@<TRIPOS>MOLECULE
ZINC49416921
   32    34     0     0     0
SMALL
USER_CHARGES

@<TRIPOS>ATOM
      1 C1         -0.0178    1.4608    0.0101 C.3       1 <0>         0.0974
      2 N1          0.0021   -0.0041    0.0020 N.pl3     1 <0>        -0.3767
      3 C2          0.0078   -0.7920   -1.0936 C.2       1 <0>         0.1652
      4 C3          0.0272   -2.0789   -0.6760 C.2       1 <0>        -0.7663
      5 C4          0.0335   -2.0775    0.7227 C.2       1 <0>         0.1321
      6 N2          0.0246   -0.8342    1.1302 N.2       1 <0>        -0.3076
      7 S1          0.0410   -3.5046   -1.7112 S.o2      1 <0>         2.6817
      8 O1         -0.4917   -4.5722   -0.9393 O.2       1 <0>        -1.0079
      9 O2         -0.5215   -3.1090   -2.9547 O.2       1 <0>        -1.0135
     10 N3          1.6266   -3.8796   -2.0070 N.2       1 <0>        -1.0573
     11 C5          1.9224   -4.8940   -2.7478 C.2       1 <0>         0.5115
     12 O3          0.9398   -5.6490   -3.2814 O.3       1 <0>        -0.7187
     13 C6          3.3654   -5.2352   -3.0169 C.3       1 <0>        -0.0910
     14 H1          3.6660   -5.2137   -4.0644 H         1 <0>         0.1167
     15 C7          4.3997   -4.8022   -1.9760 C.3       1 <0>        -0.1416
     16 C8          4.0245   -6.2798   -2.1140 C.3       1 <0>        -0.0797
     17 H2          3.4145   -6.7202   -1.3254 H         1 <0>         0.1353
     18 C9          5.0402   -7.1999   -2.7409 C.2       1 <0>         0.0414
     19 C10         4.9550   -8.5410   -2.8017 C.2       1 <0>        -0.2155
     20 C11         6.1151   -8.9952   -3.4700 C.2       1 <0>        -0.2104
     21 C12         6.8399   -7.9046   -3.7776 C.2       1 <0>        -0.0576
     22 O4          6.1811   -6.8196   -3.3387 O.3       1 <0>        -0.1757
     23 H3          1.0048    1.8381    0.0023 H         1 <0>         0.0767
     24 H4         -0.5450    1.8219   -0.8730 H         1 <0>         0.0886
     25 H5         -0.5280    1.8123    0.9069 H         1 <0>         0.0890
     26 H6         -0.0017   -0.4556   -2.1198 H         1 <0>         0.1882
     27 H7          0.0482   -2.9516    1.3568 H         1 <0>         0.1948
     28 H8          5.3810   -4.4962   -2.3387 H         1 <0>         0.0940
     29 H9          4.0365   -4.2705   -1.0965 H         1 <0>         0.1165
     30 H10         4.1543   -9.1533   -2.4139 H         1 <0>         0.1477
     31 H11         6.3706  -10.0210   -3.6909 H         1 <0>         0.1443
     32 H12         7.7887   -7.9016   -4.2936 H         1 <0>         0.1984
@<TRIPOS>BOND
     1    1    2 1
     2    1   23 1
     3    1   24 1
     4    1   25 1
     5    2    6 1
     6    2    3 1
     7    3    4 2
     8    3   26 1
     9    4    5 1
    10    4    7 1
    11    5    6 2
    12    5   27 1
    13    7    8 2
    14    7    9 2
    15    7   10 1
    16   10   11 2
    17   11   12 1
    18   11   13 1
    19   13   14 1
    20   13   16 1
    21   13   15 1
    22   15   16 1
    23   15   28 1
    24   15   29 1
    25   16   17 1
    26   16   18 1
    27   18   22 1
    28   18   19 2
    29   19   20 1
    30   19   30 1
    31   20   21 2
    32   20   31 1
    33   21   22 1
    34   21   32 1
@<TRIPOS>MOLECULE
ZINC62842284
   36    37     0     0     0
SMALL
USER_CHARGES

@<TRIPOS>ATOM
      1 C1          0.0950    0.0315   -0.6460 C.3       1 <0>        -0.1155
      2 C2         -0.3964   -1.3804   -0.3205 C.3       1 <0>        -0.1318
      3 C3         -1.9021   -1.3461   -0.0486 C.3       1 <0>        -0.1059
      4 C4         -2.1849   -0.3934    1.1172 C.3       1 <0>         0.1112
      5 N1         -1.3726   -0.8035    2.2708 N.am      1 <0>        -0.5791
      6 C5          0.0781   -0.9557    2.0949 C.3       1 <0>         0.0909
      7 C6          0.3356   -1.9021    0.9181 C.3       1 <0>        -0.1074
      8 C7         -1.9473   -1.0353    3.4677 C.2       1 <0>         0.5841
      9 O1         -3.1437   -0.8734    3.6090 O.2       1 <0>        -0.5362
     10 C8         -1.1223   -1.4866    4.6090 C.2       1 <0>         0.0248
     11 C9         -1.7011   -2.2824    5.6270 C.2       1 <0>        -0.0287
     12 C10        -0.9096   -2.6800    6.6633 C.2       1 <0>        -0.1917
     13 C11         0.4429   -2.2722    6.6572 C.2       1 <0>         0.4799
     14 O2          1.1885   -2.6046    7.5637 O.2       1 <0>        -0.5298
     15 N2          0.9035   -1.5148    5.6442 N.am      1 <0>        -0.3437
     16 N3          0.1469   -1.1523    4.6724 N.2       1 <0>        -0.1734
     17 C12         2.3078   -1.0976    5.6479 C.3       1 <0>         0.0754
     18 C13        -0.1180   -2.2907   -1.4888 C.2       1 <0>         0.5020
     19 O3          0.4232   -1.8508   -2.4888 O.co2     1 <0>        -0.6956
     20 O4         -0.4340   -3.4669   -1.4339 O.co2     1 <0>        -0.6977
     21 H1          1.1672    0.0071   -0.8408 H         1 <0>         0.0504
     22 H2         -0.4262    0.4033   -1.5281 H         1 <0>         0.0510
     23 H3         -0.1058    0.6900    0.1991 H         1 <0>         0.0346
     24 H4         -2.4247   -0.9966   -0.9390 H         1 <0>         0.0693
     25 H5         -2.2484   -2.3474    0.2076 H         1 <0>         0.0688
     26 H6         -1.9227    0.6246    0.8291 H         1 <0>         0.0726
     27 H7         -3.2419   -0.4404    1.3794 H         1 <0>         0.0894
     28 H8          0.5249    0.0164    1.8865 H         1 <0>         0.0751
     29 H9          0.5143   -1.3737    3.0022 H         1 <0>         0.1054
     30 H10        -0.0318   -2.8981    1.1652 H         1 <0>         0.0661
     31 H11         1.4056   -1.9483    0.7158 H         1 <0>         0.0671
     32 H12        -2.7421   -2.5666    5.5838 H         1 <0>         0.1623
     33 H13        -1.3044   -3.2875    7.4642 H         1 <0>         0.1691
     34 H14         2.9099   -1.8435    5.1291 H         1 <0>         0.0866
     35 H15         2.4029   -0.1373    5.1410 H         1 <0>         0.0986
     36 H16         2.6556   -1.0014    6.6765 H         1 <0>         0.1018
@<TRIPOS>BOND
     1    1    2 1
     2    1   21 1
     3    1   22 1
     4    1   23 1
     5    2    7 1
     6    2    3 1
     7    2   18 1
     8    3    4 1
     9    3   24 1
    10    3   25 1
    11    4    5 1
    12    4   26 1
    13    4   27 1
    14    5    6 1
    15    5    8 am
    16    6    7 1
    17    6   28 1
    18    6   29 1
    19    7   30 1
    20    7   31 1
    21    8    9 2
    22    8   10 1
    23   10   16 2
    24   10   11 1
    25   11   12 2
    26   11   32 1
    27   12   13 1
    28   12   33 1
    29   13   14 2
    30   13   15 am
    31   15   16 1
    32   15   17 1
    33   17   34 1
    34   17   35 1
    35   17   36 1
    36   18   19 2
    37   18   20 1
@<TRIPOS>MOLECULE
ZINC01344442
   32    34     0     0     0
SMALL
USER_CHARGES
2-(4-hydroxy-3-methoxy-phenyl)-8-oxa-3,5-diazabicyclo[4.3.0]non-10-ene-4,9-dione
@<TRIPOS>ATOM
      1 C1          1.2070    5.8678    0.0212 C.3       1 <0>         0.0227
      2 O1         -0.0590    5.2050    0.0297 O.3       1 <0>        -0.3060
      3 C2         -0.0440    3.8451    0.0227 C.ar      1 <0>         0.1068
      4 C3          1.1627    3.1641    0.0079 C.ar      1 <0>        -0.1627
      5 C4          1.1761    1.7818    0.0004 C.ar      1 <0>        -0.0811
      6 C5         -0.0126    1.0758    0.0080 C.ar      1 <0>        -0.1209
      7 C6         -1.2199    1.7491    0.0173 C.ar      1 <0>        -0.1076
      8 C7         -1.2404    3.1346    0.0298 C.ar      1 <0>         0.0830
      9 O2         -2.4272    3.7985    0.0443 O.3       1 <0>        -0.4854
     10 C8          2.4894    1.0428   -0.0156 C.3       1 <0>         0.2580
     11 H1          3.2654    1.7482   -0.3128 H         1 <0>         0.0971
     12 C9          2.7871    0.5886    1.3976 C.2       1 <0>        -0.3150
     13 C10         2.9568   -0.7337    1.6121 C.2       1 <0>         0.1692
     14 C11         3.2370   -0.8870    3.0893 C.3       1 <0>         0.0872
     15 O3          3.2008    0.4427    3.6233 O.3       1 <0>        -0.3063
     16 C12         2.9350    1.2885    2.6095 C.2       1 <0>         0.5353
     17 O4          2.8364    2.4957    2.7258 O.2       1 <0>        -0.4488
     18 N1          2.8632   -1.6320    0.5893 N.am      1 <0>        -0.6253
     19 C13         2.6023   -1.2865   -0.6783 C.2       1 <0>         0.7119
     20 O5          2.5378   -2.1579   -1.5234 O.2       1 <0>        -0.5497
     21 N2          2.4089   -0.0050   -1.0481 N.am      1 <0>        -0.7060
     22 H2          1.7755    5.5766    0.9044 H         1 <0>         0.0613
     23 H3          1.7589    5.5856   -0.8755 H         1 <0>         0.0554
     24 H4          1.0523    6.9467    0.0280 H         1 <0>         0.1027
     25 H5          2.0926    3.7132    0.0027 H         1 <0>         0.1373
     26 H6          0.0021   -0.0041    0.0020 H         1 <0>         0.1202
     27 H7         -2.1471    1.1953    0.0191 H         1 <0>         0.1376
     28 H8         -2.7786    3.9952   -0.8349 H         1 <0>         0.3882
     29 H9          4.2215   -1.3288    3.2430 H         1 <0>         0.1354
     30 H10         2.4700   -1.5032    3.5585 H         1 <0>         0.1350
     31 H11         2.9923   -2.5719    0.7912 H         1 <0>         0.4313
     32 H12         2.2208    0.2221   -1.9722 H         1 <0>         0.4391
@<TRIPOS>BOND
     1    1    2 1
     2    1   22 1
     3    1   23 1
     4    1   24 1
     5    2    3 1
     6    3    8 ar
     7    3    4 ar
     8    4    5 ar
     9    4   25 1
    10    5    6 ar
    11    5   10 1
    12    6    7 ar
    13    6   26 1
    14    7    8 ar
    15    7   27 1
    16    8    9 1
    17    9   28 1
    18   10   11 1
    19   10   21 1
    20   10   12 1
    21   12   16 1
    22   12   13 2
    23   13   14 1
    24   13   18 1
    25   14   15 1
    26   14   29 1
    27   14   30 1
    28   15   16 1
    29   16   17 2
    30   18   19 am
    31   18   31 1
    32   19   20 2
    33   19   21 am
    34   21   32 1
@<TRIPOS>MOLECULE
ZINC37053649
   33    34     0     0     0
SMALL
USER_CHARGES

@<TRIPOS>ATOM
      1 C1          1.5693   -0.5430   -1.3659 C.ar      1 <0>        -0.1926
      2 C2          2.6511    0.3032   -1.2074 C.ar      1 <0>         0.0300
      3 C3          2.6131    1.3103   -0.2651 C.ar      1 <0>        -0.7063
      4 C4          1.4787    1.4781    0.5324 C.ar      1 <0>         0.1279
      5 C5          0.3870    0.6246    0.3721 C.ar      1 <0>        -0.1668
      6 C6          0.4356   -0.3847   -0.5775 C.ar      1 <0>         0.2728
      7 N1         -0.6550   -1.2422   -0.7422 N.pl3     1 <0>        -0.8586
      8 C7          1.4368    2.5222    1.5114 C.1       1 <0>         0.2136
      9 N2          1.4035    3.3506    2.2881 N.1       1 <0>        -0.3557
     10 S1          3.9958    2.3845   -0.0675 S.o2      1 <0>         2.6863
     11 O1          4.9911    1.9370   -0.9777 O.2       1 <0>        -0.9470
     12 O2          3.4859    3.7107   -0.0876 O.2       1 <0>        -0.9443
     13 N3          4.5983    2.1321    1.4543 N.pl3     1 <0>        -1.1075
     14 C8          5.1607    0.8276    1.8124 C.3       1 <0>         0.1565
     15 H1          4.7319    0.0597    1.1685 H         1 <0>         0.1114
     16 C9          6.6862    0.8598    1.6223 C.3       1 <0>        -0.1545
     17 C10         7.2853   -0.4071    2.2972 C.3       1 <0>        -0.5697
     18 S2          6.2691   -0.4836    3.8323 S.o2      1 <0>         2.3724
     19 O3          6.9445    0.2153    4.8691 O.2       1 <0>        -0.9285
     20 O4          5.8571   -1.8264    4.0475 O.2       1 <0>        -0.9320
     21 C11         4.8207    0.5091    3.2883 C.3       1 <0>        -0.5993
     22 H2          1.6035   -1.3268   -2.1081 H         1 <0>         0.1419
     23 H3          3.5291    0.1751   -1.8231 H         1 <0>         0.1560
     24 H4         -0.4930    0.7492    0.9857 H         1 <0>         0.1424
     25 H5         -0.6210   -1.9480   -1.4067 H         1 <0>         0.4088
     26 H6         -1.4461   -1.1317   -0.1919 H         1 <0>         0.4072
     27 H7          4.5788    2.8479    2.1085 H         1 <0>         0.4246
     28 H8          6.9248    0.8580    0.5587 H         1 <0>         0.1192
     29 H9          7.0966    1.7549    2.0898 H         1 <0>         0.0997
     30 H10         7.1332   -1.2921    1.6794 H         1 <0>         0.1447
     31 H11         8.3410   -0.2679    2.5299 H         1 <0>         0.1478
     32 H12         4.7387    1.4257    3.8725 H         1 <0>         0.1498
     33 H13         3.9041   -0.0769    3.3560 H         1 <0>         0.1499
@<TRIPOS>BOND
     1    1    6 ar
     2    1    2 ar
     3    1   22 1
     4    2    3 ar
     5    2   23 1
     6    3    4 ar
     7    3   10 1
     8    4    5 ar
     9    4    8 1
    10    5    6 ar
    11    5   24 1
    12    6    7 1
    13    7   25 1
    14    7   26 1
    15    8    9 3
    16   10   11 2
    17   10   12 2
    18   10   13 1
    19   13   14 1
    20   13   27 1
    21   14   15 1
    22   14   21 1
    23   14   16 1
    24   16   17 1
    25   16   28 1
    26   16   29 1
    27   17   18 1
    28   17   30 1
    29   17   31 1
    30   18   19 2
    31   18   20 2
    32   18   21 1
    33   21   32 1
    34   21   33 1
@<TRIPOS>MOLECULE
ZINC40378340
   40    41     0     0     0
SMALL
USER_CHARGES

@<TRIPOS>ATOM
      1 C1         -0.0187    1.5277    0.0104 C.3       1 <0>        -0.1365
      2 C2          1.4185    2.0534   -0.0005 C.3       1 <0>        -0.1180
      3 C3          2.1487    1.5734    1.2559 C.3       1 <0>        -0.1098
      4 H1          1.6189    1.9249    2.1413 H         1 <0>         0.0871
      5 C4          2.1940    0.0421    1.2616 C.3       1 <0>         0.1164
      6 N1          0.8243   -0.4720    1.1261 N.am      1 <0>        -0.6115
      7 C5          0.0021   -0.0041    0.0020 C.3       1 <0>         0.0968
      8 C6          0.3317   -1.3565    2.0158 C.2       1 <0>         0.5031
      9 O1          1.0207   -1.7354    2.9392 O.2       1 <0>        -0.5173
     10 C7         -1.0752   -1.8746    1.8632 C.3       1 <0>         0.0661
     11 H2         -1.2008   -2.3176    0.8752 H         1 <0>         0.1068
     12 C8         -2.0820   -0.7195    2.0511 C.3       1 <0>        -0.1470
     13 C9         -3.2229   -1.4038    2.8523 C.3       1 <0>        -0.1555
     14 C10        -2.4155   -2.4023    3.7194 C.3       1 <0>         0.0462
     15 O2         -1.3443   -2.8544    2.8727 O.3       1 <0>        -0.3513
     16 C11         3.5749    2.1272    1.2607 C.3       1 <0>         0.1199
     17 N2          3.5314    3.5873    1.3722 N.pl3     1 <0>        -1.1215
     18 S1          4.9007    4.4283    1.7725 S.o2      1 <0>         2.8009
     19 O3          4.5462    5.8043    1.7741 O.2       1 <0>        -0.9833
     20 O4          5.4553    3.7832    2.9108 O.2       1 <0>        -0.9804
     21 N3          5.9825    4.2195    0.5363 N.pl3     1 <0>        -1.2620
     22 H3         -0.5281    1.8797    0.9075 H         1 <0>         0.0696
     23 H4         -0.5451    1.8893   -0.8729 H         1 <0>         0.0810
     24 H5          1.9348    1.6808   -0.8852 H         1 <0>         0.0711
     25 H6          1.4064    3.1432   -0.0193 H         1 <0>         0.0696
     26 H7          2.8003   -0.3086    0.4265 H         1 <0>         0.0736
     27 H8          2.6242   -0.3072    2.2002 H         1 <0>         0.0982
     28 H9         -1.0139   -0.3839    0.1095 H         1 <0>         0.0900
     29 H10         0.4296   -0.3586   -0.9359 H         1 <0>         0.0740
     30 H11        -1.6374    0.0928    2.6261 H         1 <0>         0.0826
     31 H12        -2.4453   -0.3610    1.0880 H         1 <0>         0.0950
     32 H13        -3.7532   -0.6828    3.4744 H         1 <0>         0.0893
     33 H14        -3.9104   -1.9272    2.1878 H         1 <0>         0.0846
     34 H15        -2.0160   -1.9009    4.6009 H         1 <0>         0.0647
     35 H16        -3.0445   -3.2425    4.0136 H         1 <0>         0.0934
     36 H17         4.1222    1.7142    2.1081 H         1 <0>         0.0878
     37 H18         4.0761    1.8483    0.3338 H         1 <0>         0.0698
     38 H19         2.7006    4.0614    1.2115 H         1 <0>         0.4204
     39 H20         5.7421    3.6791   -0.2325 H         1 <0>         0.4138
     40 H21         6.8566    4.6378    0.5809 H         1 <0>         0.4217
@<TRIPOS>BOND
     1    1    7 1
     2    1    2 1
     3    1   22 1
     4    1   23 1
     5    2    3 1
     6    2   24 1
     7    2   25 1
     8    3    4 1
     9    3    5 1
    10    3   16 1
    11    5    6 1
    12    5   26 1
    13    5   27 1
    14    6    7 1
    15    6    8 am
    16    7   28 1
    17    7   29 1
    18    8    9 2
    19    8   10 1
    20   10   11 1
    21   10   15 1
    22   10   12 1
    23   12   13 1
    24   12   30 1
    25   12   31 1
    26   13   14 1
    27   13   32 1
    28   13   33 1
    29   14   15 1
    30   14   34 1
    31   14   35 1
    32   16   17 1
    33   16   36 1
    34   16   37 1
    35   17   18 1
    36   17   38 1
    37   18   19 2
    38   18   20 2
    39   18   21 1
    40   21   39 1
    41   21   40 1
@<TRIPOS>MOLECULE
ZINC07315111
   26    26     0     0     0
SMALL
USER_CHARGES

@<TRIPOS>ATOM
      1 C1          0.0180   -1.1779   -0.0044 C.1       1 <0>        -0.1551
      2 C2          0.0021   -0.0041    0.0020 C.1       1 <0>        -0.2210
      3 C3         -0.0179    1.4678    0.0101 C.3       1 <0>         0.2334
      4 N1          1.3565    1.9749   -0.0003 N.am      1 <0>        -0.7202
      5 C4          1.5848    3.3031    0.0047 C.2       1 <0>         0.5402
      6 O1          0.6524    4.0786    0.0177 O.2       1 <0>        -0.5185
      7 C5          2.9986    3.8248   -0.0060 C.3       1 <0>        -0.1635
      8 S1          2.9740    5.6386    0.0039 S.3       1 <0>         0.1363
      9 C6          4.6776    6.0881   -0.0099 C.2       1 <0>         0.2004
     10 N2          5.7016    5.2666   -0.0298 N.2       1 <0>        -0.2829
     11 N3          6.7985    5.9364   -0.0347 N.2       1 <0>        -0.1930
     12 C7          6.5427    7.2139   -0.0183 C.2       1 <0>         0.0431
     13 N4          5.1826    7.3566   -0.0079 N.pl3     1 <0>        -0.2797
     14 N5          4.4761    8.5256    0.0051 N.3       1 <0>        -0.5810
     15 C8          7.5576    8.3279   -0.0176 C.3       1 <0>         0.5714
     16 F1          8.8095    7.8185   -0.3786 F         1 <0>        -0.1385
     17 F2          7.1718    9.3108   -0.9353 F         1 <0>        -0.1651
     18 F3          7.6336    8.8886    1.2619 F         1 <0>        -0.1593
     19 H1          0.0322   -2.2278   -0.0102 H         1 <0>         0.2238
     20 H2         -0.5451    1.8289   -0.8729 H         1 <0>         0.0971
     21 H3         -0.5281    1.8193    0.9069 H         1 <0>         0.0970
     22 H4          2.1022    1.3546   -0.0107 H         1 <0>         0.4093
     23 H5          3.5258    3.4637    0.8770 H         1 <0>         0.1317
     24 H6          3.5088    3.4732   -0.9028 H         1 <0>         0.1324
     25 H7          4.2984    8.8302    0.9505 H         1 <0>         0.3770
     26 H8          4.9525    9.2420   -0.5221 H         1 <0>         0.3847
@<TRIPOS>BOND
     1    1    2 3
     2    1   19 1
     3    2    3 1
     4    3    4 1
     5    3   20 1
     6    3   21 1
     7    4    5 am
     8    4   22 1
     9    5    6 2
    10    5    7 1
    11    7    8 1
    12    7   23 1
    13    7   24 1
    14    8    9 1
    15    9   13 1
    16    9   10 2
    17   10   11 1
    18   11   12 2
    19   12   13 1
    20   12   15 1
    21   13   14 1
    22   14   25 1
    23   14   26 1
    24   15   16 1
    25   15   17 1
    26   15   18 1
@<TRIPOS>MOLECULE
ZINC51578981
   36    37     0     0     0
SMALL
USER_CHARGES

@<TRIPOS>ATOM
      1 C1         -0.0184    1.5028    0.0103 C.3       1 <0>        -0.1208
      2 C2          0.0021   -0.0041    0.0020 C.ar      1 <0>        -0.0578
      3 C3          0.0056   -0.6860   -1.2034 C.ar      1 <0>        -0.1214
      4 C4          0.0238   -2.0648   -1.2230 C.ar      1 <0>        -0.0836
      5 C5          0.0392   -2.7779   -0.0241 C.ar      1 <0>        -0.0664
      6 C6          0.0360   -2.0853    1.1943 C.ar      1 <0>         0.2138
      7 C7          0.0228   -0.6969    1.1961 C.ar      1 <0>        -0.1304
      8 N1          0.0512   -2.7860    2.3972 N.pl3     1 <0>        -0.6629
      9 C8          1.3310   -3.1286    3.0198 C.3       1 <0>         0.1652
     10 C9          1.4629   -2.3912    4.3565 C.3       1 <0>        -0.6261
     11 S1          0.0599   -2.8460    5.4183 S.o2      1 <0>         2.4178
     12 O1          0.0478   -1.9811    6.5457 O.2       1 <0>        -0.9457
     13 O2          0.0863   -4.2518    5.6239 O.2       1 <0>        -0.9343
     14 C10        -1.3633   -2.4402    4.3637 C.3       1 <0>        -0.6258
     15 C11        -1.2128   -3.1675    3.0293 C.3       1 <0>         0.1647
     16 C12         0.0582   -4.2560   -0.0387 C.2       1 <0>         0.4048
     17 N2          0.0725   -4.9179    1.0821 N.2       1 <0>        -0.3863
     18 O3          0.0908   -6.3337    1.0681 O.3       1 <0>        -0.4324
     19 N3          0.0609   -4.9365   -1.2448 N.pl3     1 <0>        -0.8728
     20 H1          1.0042    1.8801    0.0026 H         1 <0>         0.0758
     21 H2         -0.5455    1.8639   -0.8728 H         1 <0>         0.0710
     22 H3         -0.5286    1.8543    0.9071 H         1 <0>         0.0697
     23 H4         -0.0062   -0.1354   -2.1324 H         1 <0>         0.1311
     24 H5          0.0258   -2.5920   -2.1655 H         1 <0>         0.1272
     25 H6          0.0244   -0.1584    2.1323 H         1 <0>         0.1296
     26 H7          1.3747   -4.2039    3.1923 H         1 <0>         0.0857
     27 H8          2.1466   -2.8331    2.3599 H         1 <0>         0.0878
     28 H9          2.3960   -2.6781    4.8414 H         1 <0>         0.1400
     29 H10         1.4554   -1.3152    4.1824 H         1 <0>         0.1323
     30 H11        -2.2834   -2.7593    4.8533 H         1 <0>         0.1404
     31 H12        -1.3941   -1.3647    4.1896 H         1 <0>         0.1324
     32 H13        -2.0420   -2.8972    2.3755 H         1 <0>         0.0876
     33 H14        -1.2223   -4.2437    3.2020 H         1 <0>         0.0853
     34 H15         0.1004   -6.7356    1.9475 H         1 <0>         0.4011
     35 H16         0.0502   -4.4433   -2.0800 H         1 <0>         0.3942
     36 H17         0.0733   -5.9064   -1.2544 H         1 <0>         0.4091
@<TRIPOS>BOND
     1    1    2 1
     2    1   20 1
     3    1   21 1
     4    1   22 1
     5    2    7 ar
     6    2    3 ar
     7    3    4 ar
     8    3   23 1
     9    4    5 ar
    10    4   24 1
    11    5    6 ar
    12    5   16 1
    13    6    7 ar
    14    6    8 1
    15    7   25 1
    16    8   15 1
    17    8    9 1
    18    9   10 1
    19    9   26 1
    20    9   27 1
    21   10   11 1
    22   10   28 1
    23   10   29 1
    24   11   12 2
    25   11   13 2
    26   11   14 1
    27   14   15 1
    28   14   30 1
    29   14   31 1
    30   15   32 1
    31   15   33 1
    32   16   17 2
    33   16   19 1
    34   17   18 1
    35   18   34 1
    36   19   35 1
    37   19   36 1
@<TRIPOS>MOLECULE
ZINC03847516
   30    32     0     0     0
SMALL
USER_CHARGES
BLAHdicarboxylic acid
@<TRIPOS>ATOM
      1 C1          5.4182    3.6843   -0.5478 C.ar      1 <0>        -0.1521
      2 C2          5.7845    2.7436    0.4010 C.ar      1 <0>        -0.0991
      3 C3          4.8845    1.8293    0.9201 C.ar      1 <0>        -0.1297
      4 C4          3.5759    1.8924    0.4461 C.ar      1 <0>         0.1061
      5 C5          3.2058    2.8581   -0.5260 C.ar      1 <0>        -0.0950
      6 C6          4.1370    3.7695   -1.0338 C.ar      1 <0>        -0.0609
      7 C7          1.7997    2.6427   -0.7842 C.2       1 <0>        -0.1650
      8 C8          1.4028    1.6126   -0.0027 C.2       1 <0>         0.0683
      9 N1          2.4609    1.1591    0.7370 N.pl3     1 <0>        -0.5592
     10 H1          2.4245    0.4272    1.3725 H         1 <0>         0.4237
     11 C9         -0.0127    1.0858    0.0080 C.3       1 <0>         0.0493
     12 H2          0.0021   -0.0041    0.0020 H         1 <0>         0.1403
     13 C10        -0.5676    3.0345   -1.3339 C.3       1 <0>        -0.0251
     14 H3         -0.8127    3.5141   -0.3863 H         1 <0>         0.1694
     15 C11         0.8768    3.3783   -1.7230 C.3       1 <0>        -0.0405
     16 C12        -1.5071    3.5270   -2.4043 C.2       1 <0>         0.4693
     17 O1         -1.9417    2.7570   -3.2278 O.co2     1 <0>        -0.6313
     18 C13        -0.7260    1.5757    1.2418 C.2       1 <0>         0.4649
     19 O2         -1.4715    2.5240    1.1722 O.co2     1 <0>        -0.5873
     20 H4          6.1643    4.3723   -0.9171 H         1 <0>         0.1181
     21 H5          6.8074    2.7229    0.7471 H         1 <0>         0.1203
     22 H6          5.1828    1.1007    1.6594 H         1 <0>         0.1285
     23 H7          3.8613    4.5059   -1.7741 H         1 <0>         0.1320
     24 H8          1.0374    4.4525   -1.6310 H         1 <0>         0.1115
     25 H9          1.0671    3.0632   -2.7489 H         1 <0>         0.0871
     26 N2         -0.7098    1.5696   -1.2040 N.4       1 <0>        -0.4697
     27 H10        -1.7064    1.3316   -1.1380 H         1 <0>         0.4365
     28 H11        -0.3037    1.1162   -2.0309 H         1 <0>         0.4165
     29 O3         -1.8612    4.8212   -2.4429 O.co2     1 <0>        -0.7127
     30 O4         -0.5332    0.9585    2.4181 O.co2     1 <0>        -0.7142
@<TRIPOS>BOND
     1    1    6 ar
     2    1    2 ar
     3    1   20 1
     4    2    3 ar
     5    2   21 1
     6    3    4 ar
     7    3   22 1
     8    4    9 1
     9    4    5 ar
    10    5    6 ar
    11    5    7 1
    12    6   23 1
    13    7   15 1
    14    7    8 2
    15    8    9 1
    16    8   11 1
    17    9   10 1
    18   11   12 1
    19   11   18 1
    20   11   26 1
    21   13   14 1
    22   13   15 1
    23   13   16 1
    24   13   26 1
    25   15   24 1
    26   15   25 1
    27   16   17 2
    28   16   29 1
    29   18   19 2
    30   18   30 1
    31   26   27 1
    32   26   28 1
@<TRIPOS>MOLECULE
ZINC36338177
   42    42     0     0     0
SMALL
USER_CHARGES

@<TRIPOS>ATOM
      1 C1         -0.0205    1.5273    0.0067 C.3       1 <0>        -0.1469
      2 C2          0.0004   -0.0025   -0.0025 C.3       1 <0>        -0.1339
      3 C3         -1.4349   -0.5323    0.0093 C.3       1 <0>        -0.0974
      4 C4         -1.4140   -2.0621    0.0001 C.3       1 <0>         0.0990
      5 C5         -0.6729   -2.5695    1.2388 C.3       1 <0>        -0.1397
      6 C6         -0.7096   -2.5474   -1.2406 C.2       1 <0>         0.5046
      7 O1          0.4515   -2.2358   -1.4438 O.co2     1 <0>        -0.6928
      8 O2         -1.3008   -3.2517   -2.0412 O.co2     1 <0>        -0.6778
      9 N1         -2.7883   -2.5693    0.0114 N.am      1 <0>        -0.7064
     10 C7         -3.0165   -3.8976    0.0060 C.2       1 <0>         0.5279
     11 O3         -2.0840   -4.6730   -0.0082 O.2       1 <0>        -0.5180
     12 C8         -4.4302   -4.4194    0.0176 C.3       1 <0>        -0.1204
     13 H1         -4.9586   -4.0582   -0.8647 H         1 <0>         0.0945
     14 C9         -4.4100   -5.9497    0.0101 C.3       1 <0>        -0.0981
     15 C10        -5.8453   -6.4804   -0.0112 C.3       1 <0>        -0.1350
     16 C11        -6.5772   -6.0128    1.2507 C.3       1 <0>         0.1106
     17 N2         -6.4761   -4.5498    1.3412 N.am      1 <0>        -0.6251
     18 C12        -5.1463   -3.9277    1.2795 C.3       1 <0>         0.1406
     19 C13        -7.5823   -3.7922    1.4780 C.2       1 <0>         0.7087
     20 O4         -7.4805   -2.5919    1.6437 O.2       1 <0>        -0.5925
     21 N3         -8.8014   -4.3649    1.4309 N.am      1 <0>        -0.8700
     22 H2          1.0021    1.9047   -0.0017 H         1 <0>         0.0475
     23 H3         -0.5484    1.8887   -0.8758 H         1 <0>         0.0465
     24 H4         -0.5299    1.8783    0.9041 H         1 <0>         0.0412
     25 H5          0.5099   -0.3536   -0.8999 H         1 <0>         0.1083
     26 H6          0.5284   -0.3640    0.8799 H         1 <0>         0.0562
     27 H7         -1.9444   -0.1813    0.9067 H         1 <0>         0.0477
     28 H8         -1.9629   -0.1708   -0.8731 H         1 <0>         0.0541
     29 H9         -1.1824   -2.2185    2.1362 H         1 <0>         0.0343
     30 H10        -0.6580   -3.6594    1.2322 H         1 <0>         0.0661
     31 H11         0.3497   -2.1921    1.2304 H         1 <0>         0.0650
     32 H12        -3.5341   -1.9492    0.0228 H         1 <0>         0.3841
     33 H13        -3.8795   -6.3015   -0.8748 H         1 <0>         0.0786
     34 H14        -3.9026   -6.3106    0.9048 H         1 <0>         0.0705
     35 H15        -6.3608   -6.0998   -0.8930 H         1 <0>         0.0675
     36 H16        -5.8299   -7.5699   -0.0402 H         1 <0>         0.0781
     37 H17        -7.6261   -6.3037    1.1937 H         1 <0>         0.0753
     38 H18        -6.1173   -6.4659    2.1289 H         1 <0>         0.0719
     39 H19        -4.5699   -4.2104    2.1604 H         1 <0>         0.0709
     40 H20        -5.2510   -2.8435    1.2412 H         1 <0>         0.0970
     41 H21        -8.8820   -5.3298    1.3726 H         1 <0>         0.3949
     42 H22        -9.5982   -3.8123    1.4555 H         1 <0>         0.4122
@<TRIPOS>BOND
     1    1    2 1
     2    1   22 1
     3    1   23 1
     4    1   24 1
     5    2    3 1
     6    2   25 1
     7    2   26 1
     8    3    4 1
     9    3   27 1
    10    3   28 1
    11    4    5 1
    12    4    6 1
    13    4    9 1
    14    5   29 1
    15    5   30 1
    16    5   31 1
    17    6    7 2
    18    6    8 1
    19    9   10 am
    20    9   32 1
    21   10   11 2
    22   10   12 1
    23   12   13 1
    24   12   18 1
    25   12   14 1
    26   14   15 1
    27   14   33 1
    28   14   34 1
    29   15   16 1
    30   15   35 1
    31   15   36 1
    32   16   17 1
    33   16   37 1
    34   16   38 1
    35   17   18 1
    36   17   19 am
    37   18   39 1
    38   18   40 1
    39   19   20 2
    40   19   21 am
    41   21   41 1
    42   21   42 1
@<TRIPOS>MOLECULE
ZINC40547610
   40    41     0     0     0
SMALL
USER_CHARGES

@<TRIPOS>ATOM
      1 C1         -0.0224    1.5251    0.0105 C.3       1 <0>        -0.1348
      2 C2          0.0015   -0.0047    0.0020 C.3       1 <0>         0.1443
      3 C3          0.7423   -0.5101    1.2416 C.3       1 <0>        -0.1482
      4 C4         -0.0050   -1.4710    2.1684 C.3       1 <0>        -0.1779
      5 C5          0.2474   -0.0269    2.6063 C.3       1 <0>        -0.1604
      6 C6         -1.4113   -0.5292    0.0125 C.2       1 <0>         0.5074
      7 O1         -1.8077   -1.2313   -0.9021 O.co2     1 <0>        -0.6711
      8 O2         -2.1578   -0.2513    0.9355 O.co2     1 <0>        -0.6989
      9 N1          0.6883   -0.4757   -1.2033 N.am      1 <0>        -0.7163
     10 C7          0.2113   -0.1507   -2.4212 C.2       1 <0>         0.7173
     11 O3         -0.8371    0.4569   -2.5212 O.2       1 <0>        -0.5607
     12 N2          0.8964   -0.4992   -3.5282 N.am      1 <0>        -0.6371
     13 C8          2.1023   -1.3329   -3.4308 C.3       1 <0>         0.1126
     14 C9          3.2527   -0.6220   -4.1505 C.3       1 <0>        -0.1340
     15 C10         2.8283   -0.2957   -5.5842 C.3       1 <0>        -0.0962
     16 C11         1.6203    0.6436   -5.5592 C.3       1 <0>        -0.1265
     17 H1          1.8789    1.5546   -5.0196 H         1 <0>         0.1017
     18 C12         0.4482   -0.0577   -4.8560 C.3       1 <0>         0.1467
     19 C13         1.2236    0.9906   -6.9710 C.2       1 <0>         0.5282
     20 O4          1.8456    0.5320   -7.9057 O.2       1 <0>        -0.5468
     21 N3          0.1777    1.8105   -7.1949 N.am      1 <0>        -0.8543
     22 H2          0.9995    1.9045    0.0029 H         1 <0>         0.0341
     23 H3         -0.5502    1.8852   -0.8726 H         1 <0>         0.0647
     24 H4         -0.5334    1.8755    0.9073 H         1 <0>         0.0631
     25 H5          1.8150   -0.6603    1.1195 H         1 <0>         0.0898
     26 H6         -1.0245   -1.7431    1.8951 H         1 <0>         0.1191
     27 H7          0.5759   -2.2537    2.6562 H         1 <0>         0.0756
     28 H8          0.9945    0.1404    3.3822 H         1 <0>         0.0792
     29 H9         -0.6059    0.6510    2.6211 H         1 <0>         0.1070
     30 H10         1.4864   -1.0214   -1.1248 H         1 <0>         0.3792
     31 H11         2.3619   -1.4789   -2.3823 H         1 <0>         0.0774
     32 H12         1.9179   -2.2985   -3.9017 H         1 <0>         0.0651
     33 H13         3.4960    0.3010   -3.6241 H         1 <0>         0.0673
     34 H14         4.1274   -1.2721   -4.1690 H         1 <0>         0.0764
     35 H15         3.6538    0.1882   -6.1061 H         1 <0>         0.0700
     36 H16         2.5614   -1.2168   -6.1024 H         1 <0>         0.0713
     37 H17         0.1317   -0.9215   -5.4407 H         1 <0>         0.0642
     38 H18        -0.3840    0.6379   -4.7481 H         1 <0>         0.0965
     39 H19        -0.3198    2.1773   -6.4473 H         1 <0>         0.4057
     40 H20        -0.0776    2.0339   -8.1037 H         1 <0>         0.3998
@<TRIPOS>BOND
     1    1    2 1
     2    1   22 1
     3    1   23 1
     4    1   24 1
     5    2    3 1
     6    2    6 1
     7    2    9 1
     8    3    5 1
     9    3    4 1
    10    3   25 1
    11    4    5 1
    12    4   26 1
    13    4   27 1
    14    5   28 1
    15    5   29 1
    16    6    7 2
    17    6    8 1
    18    9   10 am
    19    9   30 1
    20   10   11 2
    21   10   12 am
    22   12   18 1
    23   12   13 1
    24   13   14 1
    25   13   31 1
    26   13   32 1
    27   14   15 1
    28   14   33 1
    29   14   34 1
    30   15   16 1
    31   15   35 1
    32   15   36 1
    33   16   17 1
    34   16   18 1
    35   16   19 1
    36   18   37 1
    37   18   38 1
    38   19   20 2
    39   19   21 am
    40   21   39 1
    41   21   40 1
@<TRIPOS>MOLECULE
ZINC40605149
   30    30     0     0     0
SMALL
USER_CHARGES

@<TRIPOS>ATOM
      1 C1         -0.0213    1.5606   -0.0071 C.3       1 <0>        -0.1803
      2 C2         -0.0084    0.0307   -0.0066 C.3       1 <0>         0.1059
      3 H1         -1.0330   -0.3413    0.0002 H         1 <0>         0.0679
      4 C3          0.7089   -0.4736   -1.2604 C.3       1 <0>         0.0985
      5 H2          0.1863   -0.1149   -2.1471 H         1 <0>         0.0947
      6 C4          0.7216   -1.9806   -1.2600 C.2       1 <0>         0.4959
      7 O1         -0.1911   -2.5980   -1.7818 O.co2     1 <0>        -0.6993
      8 O2          1.6445   -2.5823   -0.7379 O.co2     1 <0>        -0.6765
      9 N1          2.0860    0.0263   -1.2695 N.am      1 <0>        -0.6924
     10 C5          2.7465    0.1602   -2.4367 C.2       1 <0>         0.7039
     11 O3          2.1996   -0.1338   -3.4820 O.2       1 <0>        -0.5730
     12 N2          4.0133    0.6202   -2.4451 N.am      1 <0>        -0.6869
     13 C6          4.7319    0.6714   -3.6464 C.ar      1 <0>         0.1811
     14 C7          4.0779    0.9616   -4.8362 C.ar      1 <0>        -0.1071
     15 C8          4.7878    1.0117   -6.0202 C.ar      1 <0>        -0.0795
     16 C9          6.1497    0.7728   -6.0234 C.ar      1 <0>        -0.1529
     17 C10         6.8072    0.4825   -4.8400 C.ar      1 <0>         0.0844
     18 C11         6.1018    0.4374   -3.6488 C.ar      1 <0>         0.0278
     19 F1          6.7430    0.1601   -2.4925 F         1 <0>        -0.1280
     20 F2          8.1379    0.2491   -4.8462 F         1 <0>        -0.1303
     21 O4          0.6768   -0.4396    1.1559 O.3       1 <0>        -0.5470
     22 H3          1.0032    1.9326   -0.0138 H         1 <0>         0.0594
     23 H4         -0.5440    1.9193   -0.8938 H         1 <0>         0.0641
     24 H5         -0.5324    1.9199    0.8862 H         1 <0>         0.0540
     25 H6          2.5223    0.2609   -0.4356 H         1 <0>         0.3970
     26 H7          4.4275    0.9157   -1.6192 H         1 <0>         0.4085
     27 H8          3.0141    1.1478   -4.8362 H         1 <0>         0.1601
     28 H9          4.2781    1.2376   -6.9451 H         1 <0>         0.1425
     29 H10         6.7016    0.8125   -6.9509 H         1 <0>         0.1432
     30 H11         0.2763   -0.1574    1.9896 H         1 <0>         0.3646
@<TRIPOS>BOND
     1    1    2 1
     2    1   22 1
     3    1   23 1
     4    1   24 1
     5    2    3 1
     6    2    4 1
     7    2   21 1
     8    4    5 1
     9    4    6 1
    10    4    9 1
    11    6    7 2
    12    6    8 1
    13    9   10 am
    14    9   25 1
    15   10   11 2
    16   10   12 am
    17   12   13 1
    18   12   26 1
    19   13   18 ar
    20   13   14 ar
    21   14   15 ar
    22   14   27 1
    23   15   16 ar
    24   15   28 1
    25   16   17 ar
    26   16   29 1
    27   17   18 ar
    28   17   20 1
    29   18   19 1
    30   21   30 1
@<TRIPOS>MOLECULE
ZINC49188143
   36    36     0     0     0
SMALL
USER_CHARGES

@<TRIPOS>ATOM
      1 C1         -0.0184    1.5028    0.0103 C.3       1 <0>        -0.0682
      2 C2          0.0021   -0.0041    0.0020 C.2       1 <0>        -0.1499
      3 C3         -1.0392   -0.8719    0.0017 C.2       1 <0>        -0.1594
      4 C4         -0.7802   -2.2296   -0.0075 C.2       1 <0>        -0.1493
      5 C5          0.5074   -2.6532   -0.0160 C.2       1 <0>        -0.1418
      6 S1          1.4039   -1.1093   -0.0179 S.3       1 <0>         0.0416
      7 C6          1.0430   -4.0617   -0.0269 C.3       1 <0>         0.2488
      8 H1          0.2679   -4.7425   -0.3788 H         1 <0>         0.1079
      9 C7          1.4651   -4.4578    1.3894 C.3       1 <0>        -0.1605
     10 N1          2.2014   -4.1368   -0.9206 N.am      1 <0>        -0.7487
     11 C8          2.5393   -5.3113   -1.4887 C.2       1 <0>         0.7066
     12 O1          1.8826   -6.3086   -1.2596 O.2       1 <0>        -0.5925
     13 N2          3.6049   -5.3804   -2.3109 N.am      1 <0>        -0.7027
     14 C9          3.9721   -6.6571   -2.9285 C.3       1 <0>         0.1000
     15 H2          3.0693   -7.2247   -3.1538 H         1 <0>         0.0911
     16 C10         4.7454   -6.3941   -4.2222 C.3       1 <0>         0.1058
     17 H3          4.9414   -7.3400   -4.7271 H         1 <0>         0.0650
     18 C11         3.9167   -5.4899   -5.1369 C.3       1 <0>        -0.1790
     19 O2          5.9848   -5.7527   -3.9144 O.3       1 <0>        -0.5447
     20 C12         4.8365   -7.4447   -1.9779 C.2       1 <0>         0.4983
     21 O3          4.8126   -8.6635   -1.9996 O.co2     1 <0>        -0.7033
     22 O4          5.5597   -6.8631   -1.1871 O.co2     1 <0>        -0.6783
     23 H4          1.0042    1.8801    0.0026 H         1 <0>         0.0714
     24 H5         -0.5455    1.8639   -0.8728 H         1 <0>         0.0784
     25 H6         -0.5286    1.8543    0.9071 H         1 <0>         0.0785
     26 H7         -2.0560   -0.5079    0.0090 H         1 <0>         0.1311
     27 H8         -1.5916   -2.9424   -0.0076 H         1 <0>         0.1344
     28 H9          2.2402   -3.7770    1.7413 H         1 <0>         0.0581
     29 H10         0.6032   -4.4019    2.0544 H         1 <0>         0.0647
     30 H11         1.8525   -5.4765    1.3816 H         1 <0>         0.0764
     31 H12         2.7253   -3.3411   -1.1034 H         1 <0>         0.3909
     32 H13         4.1288   -4.5847   -2.4937 H         1 <0>         0.3924
     33 H14         4.4676   -5.3026   -6.0586 H         1 <0>         0.0523
     34 H15         2.9713   -5.9791   -5.3717 H         1 <0>         0.0627
     35 H16         3.7207   -4.5440   -4.6321 H         1 <0>         0.0600
     36 H17         6.5286   -5.5553   -4.6893 H         1 <0>         0.3619
@<TRIPOS>BOND
     1    1    2 1
     2    1   23 1
     3    1   24 1
     4    1   25 1
     5    2    6 1
     6    2    3 2
     7    3    4 1
     8    3   26 1
     9    4    5 2
    10    4   27 1
    11    5    6 1
    12    5    7 1
    13    7    8 1
    14    7    9 1
    15    7   10 1
    16    9   28 1
    17    9   29 1
    18    9   30 1
    19   10   11 am
    20   10   31 1
    21   11   12 2
    22   11   13 am
    23   13   14 1
    24   13   32 1
    25   14   15 1
    26   14   16 1
    27   14   20 1
    28   16   17 1
    29   16   18 1
    30   16   19 1
    31   18   33 1
    32   18   34 1
    33   18   35 1
    34   19   36 1
    35   20   21 2
    36   20   22 1
@<TRIPOS>MOLECULE
ZINC05113327
   24    23     0     0     0
SMALL
USER_CHARGES
2-(2-chloroethyl-nitroso-carbamoyl)amino-3-hydroxy-propanoic acid
@<TRIPOS>ATOM
      1 C1          4.5998    6.4594   -1.0367 C.3       1 <0>         0.0564
      2 C2          4.5546    7.4935    0.0900 C.3       1 <0>        -0.0410
      3 Cl1         4.9896    9.1158   -0.5653 Cl        1 <0>        -0.1627
      4 N1          4.2463    5.1412   -0.5042 N.am      1 <0>        -0.4245
      5 C3          2.9592    4.7415   -0.4940 C.2       1 <0>         0.7048
      6 O1          2.0922    5.4743   -0.9265 O.2       1 <0>        -0.5561
      7 N2          2.6340    3.5287   -0.0041 N.am      1 <0>        -0.6742
      8 C4          1.2350    3.0943    0.0069 C.3       1 <0>         0.1061
      9 H1          0.7272    3.4820   -0.8762 H         1 <0>         0.1074
     10 C5          0.5460    3.6251    1.2656 C.3       1 <0>         0.0858
     11 O2          1.1370    3.0262    2.4207 O.3       1 <0>        -0.5605
     12 C6          1.1765    1.5884   -0.0006 C.2       1 <0>         0.4766
     13 O3          2.1986    0.9442   -0.0139 O.co2     1 <0>        -0.6254
     14 N3          5.1670    4.3630   -0.0450 N.2       1 <0>        -0.1145
     15 O4          6.3301    4.7242   -0.0542 O.2       1 <0>         0.0483
     16 H2          5.6048    6.4238   -1.4571 H         1 <0>         0.1183
     17 H3          3.8900    6.7390   -1.8152 H         1 <0>         0.1139
     18 H4          3.5495    7.5290    0.5105 H         1 <0>         0.0989
     19 H5          5.2644    7.2138    0.8685 H         1 <0>         0.1005
     20 H6          3.3263    2.9436    0.3411 H         1 <0>         0.4178
     21 H7          0.6654    4.7074    1.3162 H         1 <0>         0.0382
     22 H8         -0.5150    3.3779    1.2308 H         1 <0>         0.0662
     23 H9          0.7485    3.3173    3.2570 H         1 <0>         0.3688
     24 O5         -0.0110    0.9628    0.0073 O.co2     1 <0>        -0.7491
@<TRIPOS>BOND
     1    1    2 1
     2    1    4 1
     3    1   16 1
     4    1   17 1
     5    2    3 1
     6    2   18 1
     7    2   19 1
     8    4    5 am
     9    4   14 1
    10    5    6 2
    11    5    7 am
    12    7    8 1
    13    7   20 1
    14    8    9 1
    15    8   10 1
    16    8   12 1
    17   10   11 1
    18   10   21 1
    19   10   22 1
    20   11   23 1
    21   12   13 2
    22   12   24 1
    23   14   15 2
@<TRIPOS>MOLECULE
ZINC37448897
   32    32     0     0     0
SMALL
USER_CHARGES

@<TRIPOS>ATOM
      1 C1         -0.0184    1.5028    0.0103 C.3       1 <0>        -0.1706
      2 C2          0.0021   -0.0041    0.0020 C.2       1 <0>         0.5057
      3 O1          0.0203   -0.6160    1.0489 O.2       1 <0>        -0.5435
      4 N1          0.0001   -0.6716   -1.1688 N.am      1 <0>        -0.7317
      5 C3          0.0199   -2.1365   -1.1769 C.3       1 <0>         0.1316
      6 C4          0.0131   -2.6387   -2.6221 C.3       1 <0>        -0.1434
      7 C5          0.0335   -4.1455   -2.6304 C.2       1 <0>         0.5312
      8 O2          0.0518   -4.7575   -1.5834 O.2       1 <0>        -0.5261
      9 N2          0.0315   -4.8130   -3.8012 N.am      1 <0>        -0.5873
     10 C6          0.0169   -4.1979   -5.1409 C.3       1 <0>         0.0734
     11 C7          0.6331   -5.2686   -6.0756 C.3       1 <0>         0.0892
     12 H1          1.7218   -5.2536   -6.0225 H         1 <0>         0.0721
     13 C8          0.0647   -6.5777   -5.4671 C.3       1 <0>        -0.1007
     14 C9          0.0500   -6.2752   -3.9539 C.3       1 <0>         0.0672
     15 H2          0.9432   -6.6858   -3.4832 H         1 <0>         0.0723
     16 C10        -1.1837   -6.8716   -3.3267 C.2       1 <0>         0.4997
     17 O3         -2.2211   -6.2319   -3.2942 O.co2     1 <0>        -0.6843
     18 O4         -1.1443   -7.9939   -2.8518 O.co2     1 <0>        -0.6934
     19 O5          0.1862   -5.0921   -7.4214 O.3       1 <0>        -0.5541
     20 H3          1.0042    1.8801    0.0026 H         1 <0>         0.0915
     21 H4         -0.5455    1.8639   -0.8728 H         1 <0>         0.0786
     22 H5         -0.5286    1.8543    0.9071 H         1 <0>         0.0917
     23 H6         -0.0145   -0.1822   -2.0061 H         1 <0>         0.3985
     24 H7          0.9196   -2.4904   -0.6735 H         1 <0>         0.0768
     25 H8         -0.8601   -2.5146   -0.6566 H         1 <0>         0.0801
     26 H9         -0.8866   -2.2847   -3.1255 H         1 <0>         0.0968
     27 H10         0.8931   -2.2605   -3.1423 H         1 <0>         0.0919
     28 H11        -1.0057   -3.9731   -5.4440 H         1 <0>         0.0768
     29 H12         0.6237   -3.2925   -5.1493 H         1 <0>         0.0696
     30 H13        -0.9432   -6.7685   -5.8357 H         1 <0>         0.0850
     31 H14         0.7214   -7.4204   -5.6832 H         1 <0>         0.0812
     32 H15         0.4356   -4.2426   -7.8104 H         1 <0>         0.3739
@<TRIPOS>BOND
     1    1    2 1
     2    1   20 1
     3    1   21 1
     4    1   22 1
     5    2    3 2
     6    2    4 am
     7    4    5 1
     8    4   23 1
     9    5    6 1
    10    5   24 1
    11    5   25 1
    12    6    7 1
    13    6   26 1
    14    6   27 1
    15    7    8 2
    16    7    9 am
    17    9   14 1
    18    9   10 1
    19   10   11 1
    20   10   28 1
    21   10   29 1
    22   11   12 1
    23   11   13 1
    24   11   19 1
    25   13   14 1
    26   13   30 1
    27   13   31 1
    28   14   15 1
    29   14   16 1
    30   16   17 2
    31   16   18 1
    32   19   32 1
@<TRIPOS>MOLECULE
ZINC40578413
   31    31     0     0     0
SMALL
USER_CHARGES

@<TRIPOS>ATOM
      1 C1         -0.0187    1.5258    0.0104 C.3       1 <0>        -0.1608
      2 C2          0.0021   -0.0041    0.0020 C.3       1 <0>         0.1473
      3 H1         -1.0205   -0.3814    0.0098 H         1 <0>         0.1139
      4 C3          0.7309   -0.5033    1.2229 C.2       1 <0>         0.5186
      5 O1          1.7253   -1.1865    1.0985 O.2       1 <0>        -0.5418
      6 N1          0.2778   -0.1906    2.4531 N.am      1 <0>        -0.8507
      7 N2          0.6878   -0.4765   -1.2033 N.am      1 <0>        -0.7375
      8 C4          0.0062   -0.6081   -2.3585 C.2       1 <0>         0.7354
      9 O2         -1.1778   -0.3348   -2.4004 O.2       1 <0>        -0.5740
     10 N3          0.6370   -1.0428   -3.4674 N.am      1 <0>        -0.6018
     11 C5          2.0610   -1.4139   -3.5561 C.3       1 <0>         0.0723
     12 C6          2.1429   -2.3876   -4.7582 C.3       1 <0>         0.0895
     13 H2          1.8441   -3.3944   -4.4666 H         1 <0>         0.0721
     14 C7          1.1127   -1.7628   -5.7358 C.3       1 <0>        -0.0963
     15 C8          0.0176   -1.2314   -4.7874 C.3       1 <0>         0.0845
     16 H3         -0.7956   -1.9537   -4.7154 H         1 <0>         0.0705
     17 C9         -0.5063    0.0851   -5.3005 C.2       1 <0>         0.4977
     18 O3         -0.2436    1.1182   -4.7086 O.co2     1 <0>        -0.6754
     19 O4         -1.1930    0.1172   -6.3074 O.co2     1 <0>        -0.7008
     20 O5          3.4538   -2.3899   -5.3270 O.3       1 <0>        -0.5551
     21 H4          1.0039    1.9031    0.0027 H         1 <0>         0.0602
     22 H5         -0.5459    1.8868   -0.8726 H         1 <0>         0.0848
     23 H6         -0.5289    1.8773    0.9072 H         1 <0>         0.0644
     24 H7         -0.5174    0.3558    2.5526 H         1 <0>         0.4041
     25 H8          0.7470   -0.5119    3.2389 H         1 <0>         0.4020
     26 H9          1.6324   -0.6946   -1.1699 H         1 <0>         0.3987
     27 H10         2.6725   -0.5307   -3.7410 H         1 <0>         0.0717
     28 H11         2.3807   -1.9129   -2.6413 H         1 <0>         0.0671
     29 H12         1.5641   -0.9494   -6.3038 H         1 <0>         0.0831
     30 H13         0.7058   -2.5218   -6.4041 H         1 <0>         0.0825
     31 H14         4.1463   -2.6808   -4.7180 H         1 <0>         0.3741
@<TRIPOS>BOND
     1    1    2 1
     2    1   21 1
     3    1   22 1
     4    1   23 1
     5    2    3 1
     6    2    4 1
     7    2    7 1
     8    4    5 2
     9    4    6 am
    10    6   24 1
    11    6   25 1
    12    7    8 am
    13    7   26 1
    14    8    9 2
    15    8   10 am
    16   10   15 1
    17   10   11 1
    18   11   12 1
    19   11   27 1
    20   11   28 1
    21   12   13 1
    22   12   14 1
    23   12   20 1
    24   14   15 1
    25   14   29 1
    26   14   30 1
    27   15   16 1
    28   15   17 1
    29   17   18 2
    30   17   19 1
    31   20   31 1
@<TRIPOS>MOLECULE
ZINC50421360
   31    31     0     0     0
SMALL
USER_CHARGES

@<TRIPOS>ATOM
      1 C1         -0.0187    1.5258    0.0104 C.3       1 <0>        -0.1604
      2 C2          0.0021   -0.0041    0.0020 C.3       1 <0>         0.1806
      3 H1          0.5123   -0.3556   -0.8948 H         1 <0>         0.0881
      4 C3          0.7421   -0.5109    1.2415 C.3       1 <0>        -0.1969
      5 C4          0.8700   -2.0108    1.1719 C.2       1 <0>         0.4865
      6 O1          0.4118   -2.6182    0.2192 O.co2     1 <0>        -0.6830
      7 O2          1.4317   -2.6170    2.0683 O.co2     1 <0>        -0.7089
      8 N1         -1.3723   -0.5112    0.0124 N.am      1 <0>        -0.7085
      9 C5         -2.0508   -0.6427   -1.1446 C.2       1 <0>         0.7167
     10 O3         -1.5223   -0.3406   -2.1971 O.2       1 <0>        -0.5971
     11 N2         -3.3153   -1.1092   -1.1351 N.am      1 <0>        -0.7503
     12 C6         -4.0528   -1.2522   -2.3928 C.3       1 <0>         0.2327
     13 C7         -5.4319   -1.7891   -2.1081 C.2       1 <0>         0.1612
     14 N3         -5.7770   -3.0468   -2.0568 N.2       1 <0>        -0.2693
     15 N4         -7.0315   -3.1409   -1.7901 N.2       1 <0>        -0.2964
     16 C8         -7.5436   -1.9476   -1.6592 C.2       1 <0>         0.1505
     17 N5         -6.5421   -1.0557   -1.8523 N.pl3     1 <0>        -0.4715
     18 C9         -6.6402    0.4050   -1.7985 C.3       1 <0>         0.0694
     19 H2          1.0039    1.9031    0.0027 H         1 <0>         0.0599
     20 H3         -0.5459    1.8868   -0.8726 H         1 <0>         0.0532
     21 H4         -0.5289    1.8773    0.9072 H         1 <0>         0.0477
     22 H5          1.7350   -0.0630    1.2804 H         1 <0>         0.0729
     23 H6          0.1838   -0.2350    2.1361 H         1 <0>         0.0598
     24 H7         -1.7940   -0.7522    0.8520 H         1 <0>         0.3898
     25 H8         -3.7369   -1.3503   -0.2954 H         1 <0>         0.3953
     26 H9         -4.1345   -0.2799   -2.8786 H         1 <0>         0.0827
     27 H10        -3.5223   -1.9427   -3.0485 H         1 <0>         0.1023
     28 H11        -8.5740   -1.7143   -1.4346 H         1 <0>         0.2198
     29 H12        -6.8812    0.7898   -2.7894 H         1 <0>         0.0849
     30 H13        -7.4242    0.6909   -1.0972 H         1 <0>         0.0937
     31 H14        -5.6883    0.8213   -1.4687 H         1 <0>         0.0948
@<TRIPOS>BOND
     1    1    2 1
     2    1   19 1
     3    1   20 1
     4    1   21 1
     5    2    3 1
     6    2    4 1
     7    2    8 1
     8    4    5 1
     9    4   22 1
    10    4   23 1
    11    5    6 2
    12    5    7 1
    13    8    9 am
    14    8   24 1
    15    9   10 2
    16    9   11 am
    17   11   12 1
    18   11   25 1
    19   12   13 1
    20   12   26 1
    21   12   27 1
    22   13   17 1
    23   13   14 2
    24   14   15 1
    25   15   16 2
    26   16   17 1
    27   16   28 1
    28   17   18 1
    29   18   29 1
    30   18   30 1
    31   18   31 1
@<TRIPOS>MOLECULE
ZINC16382847
   14    14     0     0     0
SMALL
USER_CHARGES

@<TRIPOS>ATOM
      1 C1         -0.0172    1.4171    0.0098 C.2       1 <0>        -0.3209
      2 C2          1.2830    2.1165    0.0012 C.2       1 <0>         0.5521
      3 N1          2.3898    1.3924   -0.0133 N.2       1 <0>        -0.5960
      4 C3          2.3463    0.0611   -0.0200 C.2       1 <0>         0.5550
      5 S1          3.8226   -0.8056   -0.0382 S.2       1 <0>        -0.6435
      6 N2          1.1968   -0.6306   -0.0128 N.pl3     1 <0>        -0.6162
      7 H1          1.2252   -1.6002   -0.0182 H         1 <0>         0.4205
      8 C4          0.0021   -0.0041    0.0020 C.2       1 <0>         0.4950
      9 O1         -1.1422   -0.7067    0.0087 O.3       1 <0>        -0.5653
     10 N3          1.3419    3.4858    0.0075 N.pl3     1 <0>        -0.7927
     11 N4         -1.1566    2.0875    0.0297 N.2       1 <0>        -0.2922
     12 O2         -2.2163    1.4872    0.0416 O.2       1 <0>        -0.0275
     13 H2          0.5234    4.0064    0.0178 H         1 <0>         0.4202
     14 H3          2.2019    3.9343    0.0017 H         1 <0>         0.4113
@<TRIPOS>BOND
     1    1    8 2
     2    1    2 1
     3    1   11 1
     4    2    3 2
     5    2   10 1
     6    3    4 1
     7    4    5 2
     8    4    6 1
     9    6    7 1
    10    6    8 1
    11    8    9 1
    12   10   13 1
    13   10   14 1
    14   11   12 2
@<TRIPOS>MOLECULE
ZINC04831367
   26    26     0     0     0
SMALL
USER_CHARGES
2-(hydroxymethyl)-6-methoxy-tetrahydropyran-3,4-diol
@<TRIPOS>ATOM
      1 C1          0.0021   -0.0041    0.0020 C.3       1 <0>         0.0299
      2 O1         -0.0173    1.4248    0.0099 O.3       1 <0>        -0.3692
      3 C2          1.2801    2.0237    0.0007 C.3       1 <0>         0.2594
      4 H1          1.8943    1.5724    0.7799 H         1 <0>         0.0585
      5 C3          1.1502    3.5271    0.2592 C.3       1 <0>        -0.1721
      6 C4          2.5382    4.1712    0.1882 C.3       1 <0>         0.0754
      7 H2          2.4480    5.2499    0.3164 H         1 <0>         0.0737
      8 C5          3.1603    3.8679   -1.1783 C.3       1 <0>         0.0825
      9 H3          4.1704    4.2758   -1.2183 H         1 <0>         0.0799
     10 C6          3.2125    2.3514   -1.3813 C.3       1 <0>         0.1181
     11 H4          3.8521    1.9046   -0.6202 H         1 <0>         0.0870
     12 O2          1.8938    1.8119   -1.2723 O.3       1 <0>        -0.3834
     13 C7          3.7775    2.0416   -2.7690 C.3       1 <0>         0.0856
     14 O3          3.9340    0.6287   -2.9150 O.3       1 <0>        -0.5684
     15 O4          2.3650    4.4604   -2.2072 O.3       1 <0>        -0.5413
     16 O5          3.3676    3.6347    1.2207 O.3       1 <0>        -0.5617
     17 H5         -1.0205   -0.3814    0.0098 H         1 <0>         0.0891
     18 H6          0.5123   -0.3556   -0.8948 H         1 <0>         0.0545
     19 H7          0.5293   -0.3651    0.8851 H         1 <0>         0.0421
     20 H8          0.5030    3.9720   -0.4965 H         1 <0>         0.0979
     21 H9          0.7228    3.6910    1.2485 H         1 <0>         0.0853
     22 H10         3.0921    2.4119   -3.5314 H         1 <0>         0.0655
     23 H11         4.7461    2.5282   -2.8839 H         1 <0>         0.0617
     24 H12         4.2888    0.3588   -3.7731 H         1 <0>         0.3823
     25 H13         2.2885    5.4220   -2.1406 H         1 <0>         0.3803
     26 H14         3.0332    3.7903    2.1146 H         1 <0>         0.3874
@<TRIPOS>BOND
     1    1    2 1
     2    1   17 1
     3    1   18 1
     4    1   19 1
     5    2    3 1
     6    3    4 1
     7    3   12 1
     8    3    5 1
     9    5    6 1
    10    5   20 1
    11    5   21 1
    12    6    7 1
    13    6    8 1
    14    6   16 1
    15    8    9 1
    16    8   10 1
    17    8   15 1
    18   10   11 1
    19   10   12 1
    20   10   13 1
    21   13   14 1
    22   13   22 1
    23   13   23 1
    24   14   24 1
    25   15   25 1
    26   16   26 1
@<TRIPOS>MOLECULE
ZINC11568799
   27    28     0     0     0
SMALL
USER_CHARGES
7-amino-4-(2-hydroxyethyl)-1,4-benzoxazin-3-one
@<TRIPOS>ATOM
      1 C1          0.0729   -2.7765   -0.0345 C.ar      1 <0>        -0.1894
      2 C2          1.0572   -2.0565   -0.6860 C.ar      1 <0>        -0.0770
      3 C3          1.0248   -0.6723   -0.6704 C.ar      1 <0>         0.0373
      4 C4          0.0021   -0.0041    0.0020 C.ar      1 <0>         0.1290
      5 C5         -0.9816   -0.7251    0.6540 C.ar      1 <0>        -0.1886
      6 C6         -0.9468   -2.1141    0.6360 C.ar      1 <0>         0.2272
      7 N1         -1.9407   -2.8460    1.2940 N.pl3     1 <0>        -0.8737
      8 O1         -0.0164    1.3557    0.0095 O.3       1 <0>        -0.3034
      9 C7          1.2518    2.0161    0.0009 C.3       1 <0>         0.0532
     10 C8          2.1430    1.3888   -1.0406 C.2       1 <0>         0.4876
     11 O2          2.9715    2.0610   -1.6179 O.2       1 <0>        -0.4946
     12 N2          2.0156    0.0751   -1.3282 N.am      1 <0>        -0.5447
     13 C9          2.8975   -0.5603   -2.3105 C.3       1 <0>         0.1097
     14 C10         2.2670   -0.4616   -3.7010 C.3       1 <0>         0.0590
     15 O3          2.1908    0.9104   -4.0931 O.3       1 <0>        -0.5580
     16 H1          0.0973   -3.8562   -0.0468 H         1 <0>         0.1298
     17 H2          1.8500   -2.5730   -1.2067 H         1 <0>         0.1325
     18 H3         -1.7748   -0.2101    1.1753 H         1 <0>         0.1371
     19 H4         -2.6535   -2.3840    1.7623 H         1 <0>         0.4007
     20 H5         -1.9171   -3.8157    1.2820 H         1 <0>         0.4015
     21 H6          1.1097    3.0716   -0.2313 H         1 <0>         0.1439
     22 H7          1.7173    1.9205    0.9819 H         1 <0>         0.0974
     23 H8          3.8631   -0.0546   -2.3126 H         1 <0>         0.0986
     24 H9          3.0372   -1.6091   -2.0485 H         1 <0>         0.0995
     25 H10         2.8785   -1.0107   -4.4170 H         1 <0>         0.0593
     26 H11         1.2645   -0.8887   -3.6765 H         1 <0>         0.0487
     27 H12         1.8003    1.0486   -4.9670 H         1 <0>         0.3774
@<TRIPOS>BOND
     1    1    6 ar
     2    1    2 ar
     3    1   16 1
     4    2    3 ar
     5    2   17 1
     6    3   12 1
     7    3    4 ar
     8    4    5 ar
     9    4    8 1
    10    5    6 ar
    11    5   18 1
    12    6    7 1
    13    7   19 1
    14    7   20 1
    15    8    9 1
    16    9   10 1
    17    9   21 1
    18    9   22 1
    19   10   11 2
    20   10   12 am
    21   12   13 1
    22   13   14 1
    23   13   23 1
    24   13   24 1
    25   14   15 1
    26   14   25 1
    27   14   26 1
    28   15   27 1
@<TRIPOS>MOLECULE
ZINC37175652
   29    29     0     0     0
SMALL
USER_CHARGES

@<TRIPOS>ATOM
      1 C1         -0.0178    1.4608    0.0101 C.3       1 <0>         0.0662
      2 N1          0.0021   -0.0041    0.0020 N.am      1 <0>        -0.6193
      3 C2          0.0241   -0.7433    1.2666 C.3       1 <0>         0.1332
      4 H1          0.0239   -1.8107    1.0460 H         1 <0>         0.1185
      5 C3          1.3117   -0.3979    2.0133 C.3       1 <0>        -0.1362
      6 C4          1.0844    0.8283    2.9410 C.3       1 <0>        -0.0652
      7 S1         -0.6082    0.4325    3.5647 S.3       1 <0>        -0.2984
      8 C5         -1.2525   -0.4028    2.0601 C.3       1 <0>        -0.0743
      9 C6          0.0001   -0.6716   -1.1688 C.2       1 <0>         0.5115
     10 O1          0.0165   -1.8843   -1.1755 O.2       1 <0>        -0.4805
     11 C7         -0.0226    0.0888   -2.4697 C.3       1 <0>        -0.0789
     12 C8         -0.0203   -0.8842   -3.6205 C.2       1 <0>         0.3432
     13 N2         -0.0008   -2.1554   -3.3914 N.2       1 <0>        -0.3536
     14 O2          0.0014   -3.0697   -4.4727 O.3       1 <0>        -0.4404
     15 N3         -0.0389   -0.4182   -4.9163 N.pl3     1 <0>        -0.8750
     16 H2          1.0048    1.8381    0.0023 H         1 <0>         0.0609
     17 H3         -0.5450    1.8219   -0.8730 H         1 <0>         0.0753
     18 H4         -0.5280    1.8123    0.9069 H         1 <0>         0.0774
     19 H5          1.6203   -1.2529    2.6148 H         1 <0>         0.0907
     20 H6          2.0951   -0.1643    1.2923 H         1 <0>         0.0877
     21 H7          1.8114    0.8526    3.7528 H         1 <0>         0.1112
     22 H8          1.0918    1.7606    2.3763 H         1 <0>         0.0925
     23 H9         -1.8910    0.2722    1.4902 H         1 <0>         0.0994
     24 H10        -1.7928   -1.3108    2.3278 H         1 <0>         0.1090
     25 H11        -0.9215    0.7036   -2.5156 H         1 <0>         0.1205
     26 H12         0.8582    0.7278   -2.5324 H         1 <0>         0.1202
     27 H13         0.0166   -3.9981   -4.2027 H         1 <0>         0.4012
     28 H14        -0.0535    0.5363   -5.0883 H         1 <0>         0.3944
     29 H15        -0.0374   -1.0445   -5.6570 H         1 <0>         0.4088
@<TRIPOS>BOND
     1    1    2 1
     2    1   16 1
     3    1   17 1
     4    1   18 1
     5    2    3 1
     6    2    9 am
     7    3    4 1
     8    3    8 1
     9    3    5 1
    10    5    6 1
    11    5   19 1
    12    5   20 1
    13    6    7 1
    14    6   21 1
    15    6   22 1
    16    7    8 1
    17    8   23 1
    18    8   24 1
    19    9   10 2
    20    9   11 1
    21   11   12 1
    22   11   25 1
    23   11   26 1
    24   12   13 2
    25   12   15 1
    26   13   14 1
    27   14   27 1
    28   15   28 1
    29   15   29 1
@<TRIPOS>MOLECULE
ZINC40229003
   25    25     0     0     0
SMALL
USER_CHARGES

@<TRIPOS>ATOM
      1 C1         -0.0157    1.3044    0.0092 C.2       1 <0>         0.0097
      2 C2          1.3089    1.7643   -0.0010 C.2       1 <0>         0.0607
      3 C3          2.1257    0.6806   -0.0146 C.2       1 <0>        -0.0296
      4 N1          1.3373   -0.4271   -0.0130 N.pl3     1 <0>        -0.3705
      5 N2          0.0021   -0.0041    0.0020 N.2       1 <0>        -0.2741
      6 C4          1.8018   -1.8165   -0.0253 C.3       1 <0>         0.1473
      7 C5          1.1905   -2.5692    1.1582 C.3       1 <0>         0.0517
      8 O1          1.6437   -3.9244    1.1462 O.3       1 <0>        -0.3798
      9 C6          1.1284   -4.7190    2.2162 C.3       1 <0>         0.0641
     10 C7          1.6767   -6.1429    2.1039 C.3       1 <0>         0.0772
     11 O2          3.0928   -6.1245    2.2947 O.3       1 <0>        -0.5679
     12 N3          1.7188    3.1113    0.0019 N.pl3     1 <0>        -0.8766
     13 H1         -0.8998    1.9244    0.0250 H         1 <0>         0.1820
     14 H2          3.2056    0.6954   -0.0248 H         1 <0>         0.1706
     15 H3          1.4960   -2.2936   -0.9564 H         1 <0>         0.0919
     16 H4          2.8888   -1.8369    0.0534 H         1 <0>         0.1045
     17 H5          1.4964   -2.0920    2.0893 H         1 <0>         0.0543
     18 H6          0.1036   -2.5488    1.0794 H         1 <0>         0.0643
     19 H7          1.4329   -4.2865    3.1693 H         1 <0>         0.0583
     20 H8          0.0401   -4.7432    2.1594 H         1 <0>         0.0668
     21 H9          1.2156   -6.7710    2.8661 H         1 <0>         0.0636
     22 H10         1.4484   -6.5434    1.1162 H         1 <0>         0.0563
     23 H11         3.5089   -6.9954    2.2367 H         1 <0>         0.3812
     24 H12         1.0564    3.8198    0.0121 H         1 <0>         0.3982
     25 H13         2.6637    3.3307   -0.0062 H         1 <0>         0.3960
@<TRIPOS>BOND
     1    1    5 2
     2    1    2 1
     3    1   13 1
     4    2    3 2
     5    2   12 1
     6    3    4 1
     7    3   14 1
     8    4    5 1
     9    4    6 1
    10    6    7 1
    11    6   15 1
    12    6   16 1
    13    7    8 1
    14    7   17 1
    15    7   18 1
    16    8    9 1
    17    9   10 1
    18    9   19 1
    19    9   20 1
    20   10   11 1
    21   10   21 1
    22   10   22 1
    23   11   23 1
    24   12   24 1
    25   12   25 1
@<TRIPOS>MOLECULE
ZINC54381845
   26    26     0     0     0
SMALL
USER_CHARGES

@<TRIPOS>ATOM
      1 C1         -0.0187    1.5258    0.0104 C.3       1 <0>        -0.1483
      2 C2          0.0021   -0.0041    0.0020 C.3       1 <0>         0.0734
      3 C3          0.7421   -0.5109    1.2415 C.3       1 <0>        -0.1684
      4 O1         -1.3386   -0.4987    0.0122 O.3       1 <0>        -0.2525
      5 C4         -1.5597   -1.6896   -0.5960 C.ar      1 <0>         0.3236
      6 C5         -2.8517   -2.2338   -0.6300 C.ar      1 <0>         0.0927
      7 N1         -3.0584   -3.4023   -1.2287 N.ar      1 <0>        -0.3857
      8 C6         -2.0497   -4.0444   -1.7875 C.ar      1 <0>         0.0086
      9 C7         -0.7747   -3.5063   -1.7533 C.ar      1 <0>         0.1168
     10 N2         -0.5573   -2.3419   -1.1654 N.ar      1 <0>        -0.4973
     11 C8         -3.9794   -1.5107   -0.0019 C.2       1 <0>         0.4183
     12 N3         -3.7737   -0.3675    0.5836 N.2       1 <0>        -0.3778
     13 O2         -4.8530    0.3245    1.1847 O.3       1 <0>        -0.4199
     14 N4         -5.2544   -2.0512   -0.0374 N.pl3     1 <0>        -0.8600
     15 H1          1.0039    1.9031    0.0027 H         1 <0>         0.0780
     16 H2         -0.5459    1.8868   -0.8726 H         1 <0>         0.0636
     17 H3         -0.5289    1.8773    0.9072 H         1 <0>         0.0685
     18 H4          0.5123   -0.3556   -0.8948 H         1 <0>         0.0885
     19 H5          0.7568   -1.6008    1.2356 H         1 <0>         0.0585
     20 H6          1.7647   -0.1336    1.2338 H         1 <0>         0.0737
     21 H7          0.2319   -0.1594    2.1383 H         1 <0>         0.0649
     22 H8         -2.2197   -4.9939   -2.2732 H         1 <0>         0.1826
     23 H9          0.0455   -4.0378   -2.2128 H         1 <0>         0.1812
     24 H10        -4.6027    1.1639    1.5944 H         1 <0>         0.4030
     25 H11        -5.4078   -2.9037   -0.4741 H         1 <0>         0.4044
     26 H12        -5.9937   -1.5772    0.3743 H         1 <0>         0.4093
@<TRIPOS>BOND
     1    1    2 1
     2    1   15 1
     3    1   16 1
     4    1   17 1
     5    2    3 1
     6    2    4 1
     7    2   18 1
     8    3   19 1
     9    3   20 1
    10    3   21 1
    11    4    5 1
    12    5   10 ar
    13    5    6 ar
    14    6    7 ar
    15    6   11 1
    16    7    8 ar
    17    8    9 ar
    18    8   22 1
    19    9   10 ar
    20    9   23 1
    21   11   12 2
    22   11   14 1
    23   12   13 1
    24   13   24 1
    25   14   25 1
    26   14   26 1
@<TRIPOS>MOLECULE
ZINC04008781
   21    22     0     0     0
SMALL
USER_CHARGES
2-(3,7-dioxo-2,4,6,8-tetrazabicyclo[3.3.0]oct-8-yl)acetic acid
@<TRIPOS>ATOM
      1 C1          2.6019    0.5545    1.7704 C.3       1 <0>         0.1045
      2 C2          4.0417    0.6481    1.3351 C.2       1 <0>         0.4498
      3 O1          4.4176    1.5992    0.6917 O.co2     1 <0>        -0.6274
      4 N1          1.8698    1.7300    1.2923 N.am      1 <0>        -0.6021
      5 C3          1.1762    1.8319    0.0007 C.3       1 <0>         0.3299
      6 H1          1.8336    1.6396   -0.8473 H         1 <0>         0.1406
      7 C4          0.5850    3.2646    0.0140 C.3       1 <0>         0.3310
      8 H2          0.9205    3.8713   -0.8271 H         1 <0>         0.1404
      9 N2         -0.8675    3.0412    0.0267 N.am      1 <0>        -0.7396
     10 C5         -1.1138    1.7252    0.0161 C.2       1 <0>         0.7084
     11 O2         -2.2377    1.2613    0.0180 O.2       1 <0>        -0.5868
     12 N3         -0.0111    0.9658    0.0074 N.am      1 <0>        -0.7353
     13 N4          1.0134    3.8054    1.3117 N.am      1 <0>        -0.7437
     14 C6          1.7283    2.8798    1.9635 C.2       1 <0>         0.7084
     15 O3          2.2060    3.0667    3.0659 O.2       1 <0>        -0.5749
     16 H3          2.5532    0.5139    2.8585 H         1 <0>         0.0914
     17 H4          2.1540   -0.3471    1.3527 H         1 <0>         0.0831
     18 H5         -1.5421    3.7381    0.0369 H         1 <0>         0.4288
     19 H6          0.0021   -0.0041    0.0020 H         1 <0>         0.4316
     20 H7          0.8101    4.6937    1.6438 H         1 <0>         0.4269
     21 O4          4.9063   -0.3250    1.6623 O.co2     1 <0>        -0.7647
@<TRIPOS>BOND
     1    1    2 1
     2    1    4 1
     3    1   16 1
     4    1   17 1
     5    2    3 2
     6    2   21 1
     7    4   14 am
     8    4    5 1
     9    5    6 1
    10    5   12 1
    11    5    7 1
    12    7    8 1
    13    7    9 1
    14    7   13 1
    15    9   10 am
    16    9   18 1
    17   10   11 2
    18   10   12 am
    19   12   19 1
    20   13   14 am
    21   13   20 1
    22   14   15 2
@<TRIPOS>MOLECULE
ZINC19426600
   29    30     0     0     0
SMALL
USER_CHARGES
(2R,4R)-4-hydroxy-1-(2-hydroxypyridine-3-carbonyl)pyrrolidine-2-carboxylic acid
@<TRIPOS>ATOM
      1 C1         -3.7887    1.5155    1.3539 C.2       1 <0>        -0.2218
      2 C2         -2.6763    1.0129    0.7021 C.2       1 <0>         0.0198
      3 C3         -2.1631   -0.2207    1.1184 C.2       1 <0>        -0.2033
      4 C4         -2.7882   -0.8887    2.1823 C.2       1 <0>         0.4634
      5 N1         -3.8460   -0.3611    2.7744 N.am      1 <0>        -0.5491
      6 C5         -4.3494    0.7976    2.3948 C.2       1 <0>         0.1570
      7 O1         -2.3052   -2.0813    2.6049 O.2       1 <0>        -0.5861
      8 C6         -0.9860   -0.8083    0.4507 C.2       1 <0>         0.5864
      9 O2         -0.9090   -2.0127    0.3031 O.2       1 <0>        -0.4884
     10 N2          0.0038   -0.0099    0.0042 N.am      1 <0>        -0.5940
     11 C7          0.0003    1.4639    0.0384 C.3       1 <0>         0.1107
     12 C8          1.4967    1.8644    0.0214 C.3       1 <0>         0.1017
     13 H1          1.9818    1.9694    1.0031 H         1 <0>         0.0699
     14 C9          2.0949    0.7940   -0.9292 C.3       1 <0>        -0.1281
     15 C10         1.2656   -0.4646   -0.5980 C.3       1 <0>         0.0956
     16 H2          1.7778   -1.1341    0.1088 H         1 <0>         0.0812
     17 C11         0.9816   -1.2414   -1.8577 C.2       1 <0>         0.4667
     18 O3         -0.0884   -1.1302   -2.4078 O.co2     1 <0>        -0.6241
     19 O4          1.9174   -2.0567   -2.3688 O.co2     1 <0>        -0.7681
     20 O5          1.6693    3.1783   -0.5135 O.3       1 <0>        -0.6043
     21 H3         -4.1873    2.3902    1.0780 H         1 <0>         0.1417
     22 H4         -2.2400    1.5081   -0.0491 H         1 <0>         0.1362
     23 H5         -5.1508    1.1552    2.8742 H         1 <0>         0.1564
     24 H6         -4.3309   -0.8905    3.6078 H         1 <0>         0.4525
     25 H7         -0.5347    1.8498   -0.8418 H         1 <0>         0.0780
     26 H8         -0.5032    1.8083    0.9537 H         1 <0>         0.0747
     27 H9          1.9711    1.1199   -1.9725 H         1 <0>         0.0859
     28 H10         3.1651    0.6655   -0.7097 H         1 <0>         0.0808
     29 H11         2.6772    3.6115   -0.5937 H         1 <0>         0.4085
@<TRIPOS>BOND
     1    1    6 2
     2    1   21 1
     3    1    2 1
     4    2   22 1
     5    2    3 2
     6    3    4 1
     7    3    8 1
     8    4    7 2
     9    4    5 am
    10    5   24 1
    11    5    6 1
    12    6   23 1
    13    8    9 2
    14    8   10 am
    15   10   15 1
    16   10   11 1
    17   11   12 1
    18   11   25 1
    19   11   26 1
    20   12   13 1
    21   12   14 1
    22   12   20 1
    23   14   15 1
    24   14   27 1
    25   14   28 1
    26   15   16 1
    27   15   17 1
    28   17   18 2
    29   17   19 1
    30   20   29 1
@<TRIPOS>MOLECULE
ZINC37432227
   29    29     0     0     0
SMALL
USER_CHARGES

@<TRIPOS>ATOM
      1 C1         -0.0187    1.5258    0.0104 C.3       1 <0>        -0.1823
      2 C2          0.0021   -0.0041    0.0020 C.3       1 <0>         0.1062
      3 H1          0.5293   -0.3651    0.8851 H         1 <0>         0.0672
      4 C3          0.7182   -0.4975   -1.2568 C.3       1 <0>         0.0770
      5 H2          1.7648   -0.1951   -1.2215 H         1 <0>         0.0968
      6 C4          0.6316   -2.0003   -1.3275 C.2       1 <0>         0.4993
      7 O1         -0.3053   -2.5307   -1.8996 O.co2     1 <0>        -0.6745
      8 O2          1.4986   -2.6858   -0.8126 O.co2     1 <0>        -0.6979
      9 N1          0.0814    0.0846   -2.4408 N.am      1 <0>        -0.6595
     10 C5          0.7836    0.2269   -3.5823 C.2       1 <0>         0.5631
     11 O3          1.9463   -0.1280   -3.6295 O.2       1 <0>        -0.5301
     12 C6          0.1458    0.8100   -4.7682 C.2       1 <0>         0.0996
     13 N2         -1.0927    1.1902   -4.7065 N.2       1 <0>        -0.2123
     14 N3         -1.7340    1.7484   -5.8170 N.am      1 <0>        -0.5600
     15 C7         -1.2385    1.5615   -7.0561 C.2       1 <0>         0.4995
     16 O4         -1.8011    2.0439   -8.0156 O.2       1 <0>        -0.5278
     17 C8          0.0185    0.7505   -7.2448 C.3       1 <0>        -0.1442
     18 C9          0.9396    0.9642   -6.0380 C.3       1 <0>        -0.1077
     19 O5         -1.3386   -0.4987    0.0122 O.3       1 <0>        -0.5446
     20 H3          1.0039    1.9031    0.0027 H         1 <0>         0.0637
     21 H4         -0.5459    1.8868   -0.8726 H         1 <0>         0.0616
     22 H5         -0.5289    1.8773    0.9072 H         1 <0>         0.0546
     23 H6         -0.8457    0.3676   -2.4032 H         1 <0>         0.4075
     24 H7         -2.5406    2.2731   -5.6946 H         1 <0>         0.4316
     25 H8         -0.2386   -0.3054   -7.3283 H         1 <0>         0.1108
     26 H9          0.5282    1.0748   -8.1521 H         1 <0>         0.1181
     27 H10         1.3695    1.9651   -6.0779 H         1 <0>         0.1011
     28 H11         1.7402    0.2248   -6.0576 H         1 <0>         0.1189
     29 H12        -1.8531   -0.2245    0.7836 H         1 <0>         0.3640
@<TRIPOS>BOND
     1    1    2 1
     2    1   20 1
     3    1   21 1
     4    1   22 1
     5    2    3 1
     6    2    4 1
     7    2   19 1
     8    4    5 1
     9    4    6 1
    10    4    9 1
    11    6    7 2
    12    6    8 1
    13    9   10 am
    14    9   23 1
    15   10   11 2
    16   10   12 1
    17   12   18 1
    18   12   13 2
    19   13   14 1
    20   14   15 am
    21   14   24 1
    22   15   16 2
    23   15   17 1
    24   17   18 1
    25   17   25 1
    26   17   26 1
    27   18   27 1
    28   18   28 1
    29   19   29 1
@<TRIPOS>MOLECULE
ZINC40520647
   25    25     0     0     0
SMALL
USER_CHARGES

@<TRIPOS>ATOM
      1 C1         -0.0187    1.5258    0.0104 C.3       1 <0>        -0.1824
      2 C2          0.0021   -0.0041    0.0020 C.3       1 <0>         0.1131
      3 H1         -1.0205   -0.3814    0.0098 H         1 <0>         0.0516
      4 C3          0.7182   -0.4975   -1.2568 C.3       1 <0>         0.0950
      5 H2          1.7408   -0.1202   -1.2645 H         1 <0>         0.0922
      6 C4          0.7387   -2.0043   -1.2651 C.2       1 <0>         0.4935
      7 O1          0.0606   -2.6188   -2.0708 O.co2     1 <0>        -0.6946
      8 O2          1.4333   -2.6090   -0.4661 O.co2     1 <0>        -0.6741
      9 N1          0.0097   -0.0122   -2.4437 N.am      1 <0>        -0.6940
     10 C5          0.6691    0.1319   -3.6102 C.2       1 <0>         0.7012
     11 O3          1.8520   -0.1409   -3.6776 O.2       1 <0>        -0.5209
     12 N2          0.0172    0.5784   -4.7021 N.am      1 <0>        -0.6214
     13 C6          0.6977    0.7271   -5.9059 C.2       1 <0>         0.2861
     14 N3          1.9637    0.4822   -6.1812 N.2       1 <0>        -0.3087
     15 N4          2.4438    0.6673   -7.3352 N.2       1 <0>        -0.2266
     16 C7          1.6578    1.1180   -8.2922 C.2       1 <0>        -0.0137
     17 S1          0.1177    1.2604   -7.3963 S.3       1 <0>         0.0485
     18 O4          0.6932   -0.4774    1.1597 O.3       1 <0>        -0.5319
     19 H3          1.0039    1.9031    0.0027 H         1 <0>         0.0628
     20 H4         -0.5459    1.8868   -0.8726 H         1 <0>         0.0602
     21 H5         -0.5289    1.8773    0.9072 H         1 <0>         0.0544
     22 H6         -0.9341    0.2054   -2.3899 H         1 <0>         0.3891
     23 H7         -0.9265    0.7960   -4.6484 H         1 <0>         0.4207
     24 H8          1.8805    1.3364   -9.3261 H         1 <0>         0.2352
     25 H9          0.2938   -0.2021    1.9962 H         1 <0>         0.3648
@<TRIPOS>BOND
     1    1    2 1
     2    1   19 1
     3    1   20 1
     4    1   21 1
     5    2    3 1
     6    2    4 1
     7    2   18 1
     8    4    5 1
     9    4    6 1
    10    4    9 1
    11    6    7 2
    12    6    8 1
    13    9   10 am
    14    9   22 1
    15   10   11 2
    16   10   12 am
    17   12   13 1
    18   12   23 1
    19   13   17 1
    20   13   14 2
    21   14   15 1
    22   15   16 2
    23   16   17 1
    24   16   24 1
    25   18   25 1
@<TRIPOS>MOLECULE
ZINC40912382
   34    34     0     0     0
SMALL
USER_CHARGES

@<TRIPOS>ATOM
      1 C1         -0.0187    1.5258    0.0104 C.3       1 <0>        -0.1392
      2 C2          0.0021   -0.0041    0.0020 C.3       1 <0>         0.1157
      3 C3          0.7421   -0.5109    1.2415 C.3       1 <0>        -0.1391
      4 C4         -1.4117   -0.5257    0.0127 C.2       1 <0>         0.5028
      5 O1         -1.8097   -1.2271   -0.9017 O.co2     1 <0>        -0.6942
      6 O2         -2.1576   -0.2463    0.9358 O.co2     1 <0>        -0.6830
      7 N1          0.6878   -0.4765   -1.2033 N.am      1 <0>        -0.7118
      8 C5          1.9715   -0.1323   -1.4270 C.2       1 <0>         0.7008
      9 O3          2.5605    0.5704   -0.6285 O.2       1 <0>        -0.6017
     10 N2          2.6023   -0.5669   -2.5359 N.am      1 <0>        -0.7503
     11 C6          3.9977   -0.1927   -2.7790 C.3       1 <0>         0.1538
     12 C7          4.4699   -0.8123   -4.0959 C.3       1 <0>         0.0423
     13 H1          4.3075   -1.8899   -4.0703 H         1 <0>         0.0760
     14 C8          5.9611   -0.5239   -4.2916 C.3       1 <0>         0.0340
     15 O4          6.3685   -1.0086   -5.5746 O.3       1 <0>        -0.3784
     16 C9          5.6336   -0.4387   -6.6618 C.3       1 <0>         0.0223
     17 C10         4.1423   -0.7271   -6.4661 C.3       1 <0>         0.0237
     18 O5          3.7339   -0.2435   -5.1830 O.3       1 <0>        -0.3688
     19 H2          1.0039    1.9031    0.0027 H         1 <0>         0.0658
     20 H3         -0.5459    1.8868   -0.8726 H         1 <0>         0.0407
     21 H4         -0.5289    1.8773    0.9072 H         1 <0>         0.0613
     22 H5          0.2319   -0.1594    2.1383 H         1 <0>         0.0614
     23 H6          0.7568   -1.6008    1.2356 H         1 <0>         0.0405
     24 H7          1.7647   -0.1336    1.2338 H         1 <0>         0.0658
     25 H8          0.2179   -1.0371   -1.8404 H         1 <0>         0.4015
     26 H9          2.1325   -1.1275   -3.1729 H         1 <0>         0.3967
     27 H10         4.0776    0.8927   -2.8390 H         1 <0>         0.0722
     28 H11         4.6196   -0.5582   -1.9619 H         1 <0>         0.0806
     29 H12         6.1346    0.5508   -4.2363 H         1 <0>         0.0663
     30 H13         6.5347   -1.0270   -3.5131 H         1 <0>         0.1094
     31 H14         5.7961    0.6388   -6.6862 H         1 <0>         0.0617
     32 H15         5.9699   -0.8802   -7.6000 H         1 <0>         0.1042
     33 H16         3.5688   -0.2240   -7.2446 H         1 <0>         0.1057
     34 H17         3.9688   -1.8018   -6.5214 H         1 <0>         0.0613
@<TRIPOS>BOND
     1    1    2 1
     2    1   19 1
     3    1   20 1
     4    1   21 1
     5    2    3 1
     6    2    4 1
     7    2    7 1
     8    3   22 1
     9    3   23 1
    10    3   24 1
    11    4    5 2
    12    4    6 1
    13    7    8 am
    14    7   25 1
    15    8    9 2
    16    8   10 am
    17   10   11 1
    18   10   26 1
    19   11   12 1
    20   11   27 1
    21   11   28 1
    22   12   13 1
    23   12   18 1
    24   12   14 1
    25   14   15 1
    26   14   29 1
    27   14   30 1
    28   15   16 1
    29   16   17 1
    30   16   31 1
    31   16   32 1
    32   17   18 1
    33   17   33 1
    34   17   34 1
@<TRIPOS>MOLECULE
ZINC04713140
   38    40     0     0     0
SMALL
USER_CHARGES
N-benzylideneamino-6-(3,5-dimethylpyrazol-1-yl)-pyrimidin-4-amine
@<TRIPOS>ATOM
      1 C1          2.4923    6.7202    0.7015 C.3       1 <0>        -0.0760
      2 C2          1.7062    5.4911    0.3244 C.2       1 <0>         0.0989
      3 C3          0.4323    5.4796   -0.2558 C.2       1 <0>        -0.2631
      4 C4          0.0697    4.1898   -0.4411 C.2       1 <0>         0.1156
      5 N1          1.0860    3.4084    0.0095 N.pl3     1 <0>        -0.3320
      6 N2          2.0958    4.2533    0.4883 N.2       1 <0>        -0.2862
      7 C5          1.1161    2.0125    0.0022 C.ar      1 <0>         0.4499
      8 C6          2.3284    1.3340   -0.0130 C.ar      1 <0>        -0.2752
      9 C7          2.3048   -0.0594   -0.0203 C.ar      1 <0>         0.4736
     10 N3          1.1294   -0.6851   -0.0124 N.ar      1 <0>        -0.5475
     11 C8          0.0021   -0.0041    0.0020 C.ar      1 <0>         0.3659
     12 N4         -0.0158    1.3134    0.0093 N.ar      1 <0>        -0.5706
     13 N5          3.4870   -0.7830   -0.0350 N.pl3     1 <0>        -0.5565
     14 N6          3.4510   -2.1835   -0.0417 N.2       1 <0>        -0.2150
     15 C9          4.5579   -2.8611   -0.0555 C.2       1 <0>         0.1044
     16 C10         4.5201   -4.3353   -0.0625 C.ar      1 <0>        -0.0563
     17 C11         3.2947   -5.0059   -0.0486 C.ar      1 <0>        -0.0783
     18 C12         3.2668   -6.3848   -0.0602 C.ar      1 <0>        -0.1251
     19 C13         4.4489   -7.1039   -0.0749 C.ar      1 <0>        -0.1032
     20 C14         5.6664   -6.4464   -0.0834 C.ar      1 <0>        -0.1248
     21 C15         5.7095   -5.0678   -0.0774 C.ar      1 <0>        -0.0907
     22 C16        -1.2264    3.7068   -1.0393 C.3       1 <0>        -0.0879
     23 H1          2.2560    7.0020    1.7276 H         1 <0>         0.0829
     24 H2          3.5585    6.5091    0.6191 H         1 <0>         0.0762
     25 H3          2.2311    7.5386    0.0307 H         1 <0>         0.0837
     26 H4         -0.1573    6.3478   -0.5107 H         1 <0>         0.1585
     27 H5          3.2646    1.8724   -0.0194 H         1 <0>         0.1531
     28 H6         -0.9349   -0.5412    0.0077 H         1 <0>         0.2105
     29 H7          4.3392   -0.3197   -0.0406 H         1 <0>         0.4013
     30 H8          5.5068   -2.3452   -0.0618 H         1 <0>         0.1204
     31 H9          2.3713   -4.4459   -0.0329 H         1 <0>         0.1361
     32 H10         2.3201   -6.9046   -0.0535 H         1 <0>         0.1271
     33 H11         4.4212   -8.1835   -0.0800 H         1 <0>         0.1250
     34 H12         6.5852   -7.0140   -0.0953 H         1 <0>         0.1275
     35 H13         6.6604   -4.5559   -0.0844 H         1 <0>         0.1276
     36 H14        -1.9649    3.5755   -0.2484 H         1 <0>         0.0882
     37 H15        -1.5906    4.4408   -1.7582 H         1 <0>         0.0823
     38 H16        -1.0612    2.7549   -1.5439 H         1 <0>         0.0796
@<TRIPOS>BOND
     1    1    2 1
     2    1   23 1
     3    1   24 1
     4    1   25 1
     5    2    6 2
     6    2    3 1
     7    3    4 2
     8    3   26 1
     9    4    5 1
    10    4   22 1
    11    5    6 1
    12    5    7 1
    13    7   12 ar
    14    7    8 ar
    15    8    9 ar
    16    8   27 1
    17    9   10 ar
    18    9   13 1
    19   10   11 ar
    20   11   12 ar
    21   11   28 1
    22   13   14 1
    23   13   29 1
    24   14   15 2
    25   15   16 1
    26   15   30 1
    27   16   21 ar
    28   16   17 ar
    29   17   18 ar
    30   17   31 1
    31   18   19 ar
    32   18   32 1
    33   19   20 ar
    34   19   33 1
    35   20   21 ar
    36   20   34 1
    37   21   35 1
    38   22   36 1
    39   22   37 1
    40   22   38 1
@<TRIPOS>MOLECULE
ZINC21211405
   33    35     0     0     0
SMALL
USER_CHARGES
6-chloro-N-pyrimidin-2-yl-3,4-dihydro-2H-1,5-benzodioxepine-8-carboxamide
@<TRIPOS>ATOM
      1 C1         -0.0167    1.3819    0.0096 C.ar      1 <0>        -0.2619
      2 C2          1.1918    2.0607    0.0017 C.ar      1 <0>         0.1781
      3 N1          2.3196    1.3697   -0.0132 N.ar      1 <0>        -0.5073
      4 C3          2.3024    0.0456   -0.0197 C.ar      1 <0>         0.5393
      5 N2          1.1654   -0.6333   -0.0125 N.ar      1 <0>        -0.5493
      6 C4          0.0021   -0.0041    0.0020 C.ar      1 <0>         0.1803
      7 N3          3.5052   -0.6475   -0.0349 N.am      1 <0>        -0.6511
      8 C5          4.6718    0.0274   -0.0424 C.2       1 <0>         0.5638
      9 O1          4.6708    1.2431   -0.0359 O.2       1 <0>        -0.4555
     10 C6          5.9503   -0.7092   -0.0586 C.ar      1 <0>        -0.1135
     11 C7          7.1614   -0.0098   -0.0722 C.ar      1 <0>        -0.0486
     12 C8          8.3522   -0.7078   -0.0831 C.ar      1 <0>         0.0754
     13 C9          8.3486   -2.0980   -0.0905 C.ar      1 <0>         0.1052
     14 C10         7.1480   -2.7953   -0.0817 C.ar      1 <0>        -0.0432
     15 C11         5.9526   -2.1062   -0.0661 C.ar      1 <0>        -0.0714
     16 Cl1         7.1508   -4.5313   -0.0898 Cl        1 <0>        -0.0344
     17 O2          9.5327   -2.7737   -0.1068 O.3       1 <0>        -0.3055
     18 C12        10.3238   -2.6774    1.0791 C.3       1 <0>         0.0584
     19 C13        11.1736   -1.4165    1.0601 C.3       1 <0>        -0.1912
     20 C14        10.3316   -0.1507    1.0927 C.3       1 <0>         0.0533
     21 O3          9.5411   -0.0370   -0.0922 O.3       1 <0>        -0.3105
     22 H1         -0.9525    1.9211    0.0170 H         1 <0>         0.1508
     23 H2          1.2123    3.1405    0.0070 H         1 <0>         0.1727
     24 H3         -0.9218   -0.5633    0.0075 H         1 <0>         0.1744
     25 H4          3.5061   -1.7475   -0.0408 H         1 <0>         0.4484
     26 H5          7.1649    1.0702   -0.0706 H         1 <0>         0.1585
     27 H6          5.0179   -2.6473   -0.0593 H         1 <0>         0.1465
     28 H7          9.6639   -2.6471    1.9586 H         1 <0>         0.0624
     29 H8         10.9878   -3.5516    1.1489 H         1 <0>         0.1142
     30 H9         11.8356   -1.4072    1.9386 H         1 <0>         0.0978
     31 H10        11.7809   -1.3974    0.1431 H         1 <0>         0.0895
     32 H11         9.6617   -0.1783    1.9648 H         1 <0>         0.0614
     33 H12        10.9912    0.7267    1.1647 H         1 <0>         0.1129
@<TRIPOS>BOND
     1    1    6 ar
     2    1    2 ar
     3    1   22 1
     4    2    3 ar
     5    2   23 1
     6    3    4 ar
     7    4    5 ar
     8    4    7 1
     9    5    6 ar
    10    6   24 1
    11    7    8 am
    12    7   25 1
    13    8    9 2
    14    8   10 1
    15   10   15 ar
    16   10   11 ar
    17   11   12 ar
    18   11   26 1
    19   12   21 1
    20   12   13 ar
    21   13   14 ar
    22   13   17 1
    23   14   15 ar
    24   14   16 1
    25   15   27 1
    26   17   18 1
    27   18   19 1
    28   18   28 1
    29   18   29 1
    30   19   20 1
    31   19   30 1
    32   19   31 1
    33   20   21 1
    34   20   32 1
    35   20   33 1
@<TRIPOS>MOLECULE
ZINC38743979
   38    41     0     0     0
SMALL
USER_CHARGES

@<TRIPOS>ATOM
      1 C1         -0.0184    1.5028    0.0103 C.3       1 <0>        -0.0922
      2 C2          0.0021   -0.0041    0.0020 C.2       1 <0>        -0.0253
      3 C3         -1.0863   -0.7768    0.0030 C.2       1 <0>        -0.1569
      4 C4         -0.5311   -2.1901   -0.0073 C.3       1 <0>        -0.0283
      5 H1         -0.8370   -2.7309    0.8883 H         1 <0>         0.1547
      6 N1          0.9257   -1.9734   -0.0130 N.2       1 <0>        -0.1291
      7 N2          1.1248   -0.7562   -0.0132 N.2       1 <0>        -0.1543
      8 C5         -0.9759   -2.9370   -1.2664 C.3       1 <0>         0.1602
      9 H2         -0.6392   -2.4282   -2.1697 H         1 <0>         0.1613
     10 N3         -0.5379   -4.3580   -1.2431 N.3       1 <0>        -0.4451
     11 N4         -1.4345   -5.2282   -0.6978 N.pl3     1 <0>        -0.3574
     12 C6         -1.4118   -6.4947   -0.1413 C.2       1 <0>         0.2543
     13 N5         -2.6323   -6.8199    0.1665 N.2       1 <0>        -0.2645
     14 N6         -3.4342   -5.8590   -0.1324 N.2       1 <0>        -0.2233
     15 C7         -2.7580   -4.8744   -0.6365 C.2       1 <0>         0.1411
     16 S1         -2.8004   -3.2138   -1.2829 S.3       1 <0>        -0.0106
     17 C8         -0.1876   -7.3478    0.0700 C.3       1 <0>        -0.0010
     18 C9         -0.3379   -8.6570   -0.7074 C.3       1 <0>        -0.1095
     19 C10         0.9050   -9.5230   -0.4929 C.3       1 <0>        -0.1174
     20 C11         1.0615   -9.8302    0.9978 C.3       1 <0>        -0.1234
     21 C12         1.2117   -8.5210    1.7753 C.3       1 <0>        -0.1175
     22 C13        -0.0312   -7.6550    1.5607 C.3       1 <0>        -0.1077
     23 H3          1.0042    1.8801    0.0026 H         1 <0>         0.0828
     24 H4         -0.5455    1.8639   -0.8728 H         1 <0>         0.0827
     25 H5         -0.5286    1.8543    0.9071 H         1 <0>         0.0827
     26 H6         -2.1213   -0.4684    0.0099 H         1 <0>         0.1810
     27 H7         -0.2505   -4.6629   -2.1610 H         1 <0>         0.3867
     28 H8          0.6934   -6.8133   -0.2852 H         1 <0>         0.0960
     29 H9         -1.2189   -9.1914   -0.3522 H         1 <0>         0.0786
     30 H10        -0.4493   -8.4381   -1.7694 H         1 <0>         0.0622
     31 H11         0.7980  -10.4557   -1.0467 H         1 <0>         0.0689
     32 H12         1.7861   -8.9885   -0.8481 H         1 <0>         0.0641
     33 H13         0.1804  -10.3647    1.3530 H         1 <0>         0.0660
     34 H14         1.9469  -10.4472    1.1507 H         1 <0>         0.0653
     35 H15         1.3231   -8.7399    2.8372 H         1 <0>         0.0689
     36 H16         2.0927   -7.9865    1.4200 H         1 <0>         0.0647
     37 H17         0.0758   -6.7223    2.1146 H         1 <0>         0.0638
     38 H18        -0.9122   -8.1894    1.9159 H         1 <0>         0.0775
@<TRIPOS>BOND
     1    1    2 1
     2    1   23 1
     3    1   24 1
     4    1   25 1
     5    2    7 1
     6    2    3 2
     7    3    4 1
     8    3   26 1
     9    4    5 1
    10    4    6 1
    11    4    8 1
    12    6    7 2
    13    8    9 1
    14    8   16 1
    15    8   10 1
    16   10   11 1
    17   10   27 1
    18   11   15 1
    19   11   12 1
    20   12   13 2
    21   12   17 1
    22   13   14 1
    23   14   15 2
    24   15   16 1
    25   17   22 1
    26   17   18 1
    27   17   28 1
    28   18   19 1
    29   18   29 1
    30   18   30 1
    31   19   20 1
    32   19   31 1
    33   19   32 1
    34   20   21 1
    35   20   33 1
    36   20   34 1
    37   21   22 1
    38   21   35 1
    39   21   36 1
    40   22   37 1
    41   22   38 1
@<TRIPOS>MOLECULE
ZINC48579095
   27    29     0     0     0
SMALL
USER_CHARGES

@<TRIPOS>ATOM
      1 C1         -0.0051    1.3265   -0.5388 C.ar      1 <0>        -0.1823
      2 C2          1.1701    2.0109   -0.6739 C.ar      1 <0>         0.0105
      3 C3          2.3820    1.3632   -0.4365 C.ar      1 <0>        -0.2805
      4 C4          2.4026    0.0102   -0.0589 C.ar      1 <0>         0.1581
      5 C5          1.2008   -0.6712    0.0737 C.ar      1 <0>        -0.1667
      6 C6          0.0040   -0.0145   -0.1651 C.ar      1 <0>         0.1878
      7 O1         -1.1693   -0.6844   -0.0335 O.3       1 <0>        -0.4895
      8 O2          3.6858   -0.3756    0.1094 O.3       1 <0>        -0.2089
      9 C7          4.5448    0.6427   -0.1332 C.2       1 <0>        -0.0424
     10 C8          5.9010    0.5755   -0.0505 C.2       1 <0>         0.0196
     11 C9          6.7031    1.7962   -0.1624 C.2       1 <0>        -0.1577
     12 C10         7.9475    1.8205   -0.8952 C.2       1 <0>        -0.0139
     13 C11         8.5885    3.0056   -0.9220 C.2       1 <0>        -0.2084
     14 S1          7.5220    4.0658    0.0295 S.3       1 <0>         0.3529
     15 C12         6.3034    2.9817    0.4229 C.2       1 <0>        -0.1420
     16 N1          9.8697    3.3434   -1.5824 N.pl3     1 <0>         0.0794
     17 O3         10.4755    2.4958   -2.1957 O.2       1 <0>        -0.1392
     18 O4         10.3101    4.4669   -1.5083 O.3       1 <0>        -0.1425
     19 C13         3.7900    1.7939   -0.4895 C.2       1 <0>         0.4105
     20 O5          4.2163    2.8998   -0.7771 O.2       1 <0>        -0.4212
     21 H1         -0.9441    1.8288   -0.7183 H         1 <0>         0.1462
     22 H2          1.1602    3.0511   -0.9643 H         1 <0>         0.1423
     23 H3          1.1982   -1.7117    0.3629 H         1 <0>         0.1488
     24 H4         -1.4695   -1.1152   -0.8455 H         1 <0>         0.4045
     25 H5          6.3864   -0.3779    0.0976 H         1 <0>         0.1576
     26 H6          8.3397    0.9444   -1.3901 H         1 <0>         0.1714
     27 H7          5.4116    3.1678    1.0030 H         1 <0>         0.2056
@<TRIPOS>BOND
     1    1    6 ar
     2    1    2 ar
     3    1   21 1
     4    2    3 ar
     5    2   22 1
     6    3   19 1
     7    3    4 ar
     8    4    5 ar
     9    4    8 1
    10    5    6 ar
    11    5   23 1
    12    6    7 1
    13    7   24 1
    14    8    9 1
    15    9   10 2
    16    9   19 1
    17   10   11 1
    18   10   25 1
    19   11   15 2
    20   11   12 1
    21   12   13 2
    22   12   26 1
    23   13   14 1
    24   13   16 1
    25   14   15 1
    26   15   27 1
    27   16   17 2
    28   16   18 1
    29   19   20 2
@<TRIPOS>MOLECULE
ZINC55856023
   36    38     0     0     0
SMALL
USER_CHARGES

@<TRIPOS>ATOM
      1 C1         -0.0184    1.5028    0.0103 C.3       1 <0>        -0.1097
      2 C2          0.0021   -0.0041    0.0020 C.ar      1 <0>        -0.1478
      3 C3          0.0058   -0.6878   -1.1986 C.ar      1 <0>        -0.0482
      4 C4          0.0250   -2.0691   -1.2103 C.ar      1 <0>        -0.1738
      5 C5          0.0406   -2.7753   -0.0144 C.ar      1 <0>         0.1705
      6 C6          0.0369   -2.0927    1.1926 C.ar      1 <0>        -0.1795
      7 C7          0.0230   -0.7046    1.2016 C.ar      1 <0>         0.2390
      8 N1          0.0251   -0.0131    2.4152 N.pl3     1 <0>        -0.7355
      9 C8          0.0471   -0.7526    3.6797 C.3       1 <0>         0.1552
     10 C9          0.0448    0.2201    4.8307 C.ar      1 <0>        -0.0648
     11 C10         1.2237    0.5284    5.4778 C.ar      1 <0>        -0.0981
     12 C11         1.2233    1.4211    6.5346 C.ar      1 <0>        -0.0897
     13 C12         0.0424    2.0104    6.9505 C.ar      1 <0>        -0.1091
     14 C13        -1.1434    1.7110    6.3128 C.ar      1 <0>        -0.0718
     15 C14        -1.1493    0.8157    5.2410 C.ar      1 <0>        -0.0109
     16 C15        -2.3757    0.5050    4.5701 C.1       1 <0>         0.2428
     17 N2         -3.3486    0.2585    4.0380 N.1       1 <0>        -0.3985
     18 N3          0.0596   -4.1777   -0.0276 N.pl3     1 <0>        -0.3260
     19 C16         0.1642   -4.9864   -1.1043 C.2       1 <0>         0.2292
     20 N4          0.1421   -6.2186   -0.6680 N.2       1 <0>        -0.3295
     21 N5          0.0307   -6.2441    0.6112 N.2       1 <0>        -0.0337
     22 N6         -0.0200   -5.0431    1.0778 N.2       1 <0>        -0.0769
     23 H1          1.0042    1.8801    0.0026 H         1 <0>         0.0731
     24 H2         -0.5455    1.8639   -0.8728 H         1 <0>         0.0733
     25 H3         -0.5286    1.8543    0.9071 H         1 <0>         0.0602
     26 H4         -0.0067   -0.1412   -2.1300 H         1 <0>         0.1393
     27 H5          0.0274   -2.6005   -2.1505 H         1 <0>         0.1327
     28 H6          0.0490   -2.6398    2.1237 H         1 <0>         0.1396
     29 H7          0.0120    0.9568    2.4208 H         1 <0>         0.4059
     30 H8         -0.8337   -1.3917    3.7422 H         1 <0>         0.0727
     31 H9          0.9460   -1.3675    3.7253 H         1 <0>         0.0825
     32 H10         2.1488    0.0714    5.1588 H         1 <0>         0.1372
     33 H11         2.1490    1.6588    7.0377 H         1 <0>         0.1355
     34 H12         0.0491    2.7062    7.7765 H         1 <0>         0.1377
     35 H13        -2.0644    2.1714    6.6386 H         1 <0>         0.1365
     36 H14         0.2497   -4.6734   -2.1344 H         1 <0>         0.2402
@<TRIPOS>BOND
     1    1    2 1
     2    1   23 1
     3    1   24 1
     4    1   25 1
     5    2    7 ar
     6    2    3 ar
     7    3    4 ar
     8    3   26 1
     9    4    5 ar
    10    4   27 1
    11    5    6 ar
    12    5   18 1
    13    6    7 ar
    14    6   28 1
    15    7    8 1
    16    8    9 1
    17    8   29 1
    18    9   10 1
    19    9   30 1
    20    9   31 1
    21   10   15 ar
    22   10   11 ar
    23   11   12 ar
    24   11   32 1
    25   12   13 ar
    26   12   33 1
    27   13   14 ar
    28   13   34 1
    29   14   15 ar
    30   14   35 1
    31   15   16 1
    32   16   17 3
    33   18   22 1
    34   18   19 1
    35   19   20 2
    36   19   36 1
    37   20   21 1
    38   21   22 2
@<TRIPOS>MOLECULE
ZINC04482171
   37    39     0     0     0
SMALL
USER_CHARGES
5-amino-3-[2-(6-chlorobenzo[1,3]dioxol-5-yl)-1-cyano-vinyl]-1-(2-hydroxyethyl)pyrazole-4-carbonitrile
@<TRIPOS>ATOM
      1 C1          1.0296    3.6032   -0.8113 C.ar      1 <0>        -0.0711
      2 C2          1.1804    2.4463   -0.0353 C.ar      1 <0>        -0.0700
      3 C3          0.0995    1.9690    0.7182 C.ar      1 <0>         0.0014
      4 C4         -1.1073    2.6356    0.6889 C.ar      1 <0>        -0.0954
      5 C5         -1.2533    3.7844   -0.0764 C.ar      1 <0>         0.0667
      6 C6         -0.1806    4.2661   -0.8299 C.ar      1 <0>         0.0431
      7 O1         -0.5827    5.3929   -1.4883 O.3       1 <0>        -0.2997
      8 C7         -1.7786    5.8256   -0.8135 C.3       1 <0>         0.2115
      9 O2         -2.3225    4.6105   -0.2658 O.3       1 <0>        -0.2987
     10 Cl1         0.2775    0.5361    1.6820 Cl        1 <0>        -0.0318
     11 C8          2.4643    1.7373   -0.0122 C.2       1 <0>         0.0208
     12 C9          3.6295    2.4345   -0.1224 C.2       1 <0>         0.0149
     13 C10         3.6106    3.8664   -0.1147 C.1       1 <0>         0.2387
     14 N1          3.5957    5.0022   -0.1086 N.1       1 <0>        -0.3809
     15 C11         4.9146    1.7122   -0.2501 C.2       1 <0>         0.1987
     16 C12         6.2455    2.3172   -0.3827 C.2       1 <0>        -0.2528
     17 C13         7.1463    1.2601   -0.4682 C.2       1 <0>         0.4398
     18 N2          6.4381    0.1145   -0.4047 N.pl3     1 <0>        -0.3819
     19 N3          5.0786    0.4085   -0.2718 N.2       1 <0>        -0.2629
     20 C14         7.0076   -1.2339   -0.4659 C.3       1 <0>         0.1320
     21 C15         7.0674   -1.6966   -1.9230 C.3       1 <0>         0.0582
     22 O3          7.6230   -3.0119   -1.9827 O.3       1 <0>        -0.5681
     23 N4          8.5176    1.3653   -0.6005 N.pl3     1 <0>        -0.8333
     24 C16         6.5551    3.7150   -0.4139 C.1       1 <0>         0.2814
     25 N5          6.8007    4.8238   -0.4386 N.1       1 <0>        -0.4247
     26 H1          1.8594    3.9757   -1.3937 H         1 <0>         0.1474
     27 H2         -1.9409    2.2647    1.2668 H         1 <0>         0.1551
     28 H3         -1.5356    6.5293   -0.0173 H         1 <0>         0.0918
     29 H4         -2.4769    6.2728   -1.5209 H         1 <0>         0.1398
     30 H5          2.4858    0.6626    0.0922 H         1 <0>         0.1699
     31 H6          8.0137   -1.2227   -0.0466 H         1 <0>         0.1015
     32 H7          6.3827   -1.9186    0.1074 H         1 <0>         0.1170
     33 H8          6.0614   -1.7078   -2.3423 H         1 <0>         0.0632
     34 H9          7.6924   -1.0119   -2.4963 H         1 <0>         0.0512
     35 H10         7.6911   -3.3698   -2.8784 H         1 <0>         0.3926
     36 H11         9.0623    0.5647   -0.6568 H         1 <0>         0.4101
     37 H12         8.9357    2.2399   -0.6370 H         1 <0>         0.4246
@<TRIPOS>BOND
     1    1    6 ar
     2    1    2 ar
     3    1   26 1
     4    2    3 ar
     5    2   11 1
     6    3    4 ar
     7    3   10 1
     8    4    5 ar
     9    4   27 1
    10    5    9 1
    11    5    6 ar
    12    6    7 1
    13    7    8 1
    14    8    9 1
    15    8   28 1
    16    8   29 1
    17   11   12 2
    18   11   30 1
    19   12   13 1
    20   12   15 1
    21   13   14 3
    22   15   19 2
    23   15   16 1
    24   16   17 2
    25   16   24 1
    26   17   18 1
    27   17   23 1
    28   18   19 1
    29   18   20 1
    30   20   21 1
    31   20   31 1
    32   20   32 1
    33   21   22 1
    34   21   33 1
    35   21   34 1
    36   22   35 1
    37   23   36 1
    38   23   37 1
    39   24   25 3
@<TRIPOS>MOLECULE
ZINC18284410
   46    48     0     0     0
SMALL
USER_CHARGES

@<TRIPOS>ATOM
      1 C1         -0.0184    1.5028    0.0103 C.3       1 <0>        -0.1281
      2 C2          0.0021   -0.0041    0.0020 C.2       1 <0>         0.1998
      3 C3         -1.1634   -0.6858    0.0039 C.2       1 <0>        -0.2346
      4 C4         -1.1499   -2.0961   -0.0041 C.2       1 <0>         0.2189
      5 C5          0.0628   -2.7522   -0.0140 C.2       1 <0>        -0.2625
      6 C6          1.2464   -2.0030   -0.0152 C.2       1 <0>         0.5386
      7 O1          2.3275   -2.5707   -0.0239 O.2       1 <0>        -0.5142
      8 N1          1.1932   -0.6580   -0.0129 N.am      1 <0>        -0.6104
      9 H1          2.0180   -0.1476   -0.0177 H         1 <0>         0.4188
     10 C7          0.1236   -4.2550   -0.0245 C.3       1 <0>         0.1140
     11 H2          0.8876   -4.5906    0.6769 H         1 <0>         0.1068
     12 C8         -1.2070   -4.8297    0.3752 C.2       1 <0>        -0.2629
     13 C9         -2.3302   -4.0740    0.3641 C.2       1 <0>         0.4305
     14 O2         -2.3135   -2.7804   -0.0025 O.3       1 <0>        -0.2364
     15 N2         -3.5212   -4.6453    0.7373 N.pl3     1 <0>        -0.8291
     16 C10        -1.2878   -6.2025    0.7748 C.1       1 <0>         0.2706
     17 N3         -1.3519   -7.2915    1.0918 N.1       1 <0>        -0.4363
     18 C11         0.4743   -4.7311   -1.4106 C.ar      1 <0>        -0.1151
     19 C12        -0.3469   -4.4157   -2.4772 C.ar      1 <0>        -0.0584
     20 C13        -0.0297   -4.8500   -3.7504 C.ar      1 <0>        -0.2038
     21 C14         1.1145   -5.6044   -3.9628 C.ar      1 <0>         0.1217
     22 C15         1.9427   -5.9232   -2.8935 C.ar      1 <0>         0.0432
     23 C16         1.6230   -5.4800   -1.6154 C.ar      1 <0>         0.1404
     24 O3          2.4330   -5.7850   -0.5665 O.3       1 <0>        -0.3157
     25 C17         2.1580   -6.9998    0.1339 C.3       1 <0>         0.0370
     26 O4          3.0664   -6.6632   -3.0979 O.3       1 <0>        -0.3198
     27 C18         4.2685   -5.9494   -3.3935 C.3       1 <0>         0.0385
     28 O5          1.4252   -6.0320   -5.2159 O.3       1 <0>        -0.3048
     29 C19         0.5283   -5.6674   -6.2668 C.3       1 <0>         0.0246
     30 H3          1.0042    1.8801    0.0026 H         1 <0>         0.0804
     31 H4         -0.5455    1.8639   -0.8728 H         1 <0>         0.0992
     32 H5         -0.5286    1.8543    0.9071 H         1 <0>         0.0993
     33 H6         -2.1028   -0.1530    0.0120 H         1 <0>         0.1611
     34 H7         -3.5494   -5.5775    1.0038 H         1 <0>         0.4268
     35 H8         -4.3345   -4.1167    0.7344 H         1 <0>         0.4121
     36 H9         -1.2388   -3.8287   -2.3150 H         1 <0>         0.1248
     37 H10        -0.6739   -4.6018   -4.5809 H         1 <0>         0.1354
     38 H11         1.1489   -6.9621    0.5444 H         1 <0>         0.0423
     39 H12         2.2393   -7.8419   -0.5535 H         1 <0>         0.0511
     40 H13         2.8758   -7.1222    0.9449 H         1 <0>         0.0959
     41 H14         4.5055   -5.2791   -2.5673 H         1 <0>         0.0503
     42 H15         5.0860   -6.6567   -3.5335 H         1 <0>         0.0921
     43 H16         4.1310   -5.3680   -4.3052 H         1 <0>         0.0433
     44 H17        -0.4617   -6.0721   -6.0564 H         1 <0>         0.0568
     45 H18         0.4699   -4.5810   -6.3341 H         1 <0>         0.0558
     46 H19         0.8924   -6.0709   -7.2116 H         1 <0>         0.1021
@<TRIPOS>BOND
     1    1    2 1
     2    1   30 1
     3    1   31 1
     4    1   32 1
     5    2    8 1
     6    2    3 2
     7    3    4 1
     8    3   33 1
     9    4   14 1
    10    4    5 2
    11    5    6 1
    12    5   10 1
    13    6    7 2
    14    6    8 am
    15    8    9 1
    16   10   11 1
    17   10   12 1
    18   10   18 1
    19   12   13 2
    20   12   16 1
    21   13   14 1
    22   13   15 1
    23   15   34 1
    24   15   35 1
    25   16   17 3
    26   18   23 ar
    27   18   19 ar
    28   19   20 ar
    29   19   36 1
    30   20   21 ar
    31   20   37 1
    32   21   22 ar
    33   21   28 1
    34   22   23 ar
    35   22   26 1
    36   23   24 1
    37   24   25 1
    38   25   38 1
    39   25   39 1
    40   25   40 1
    41   26   27 1
    42   27   41 1
    43   27   42 1
    44   27   43 1
    45   28   29 1
    46   29   44 1
    47   29   45 1
    48   29   46 1
@<TRIPOS>MOLECULE
ZINC55158093
   48    50     0     0     0
SMALL
USER_CHARGES

@<TRIPOS>ATOM
      1 C1         -0.0103    1.0383    0.6981 C.3       1 <0>        -0.6659
      2 S1          1.1715    1.7123   -0.5017 S.o2      1 <0>         2.6079
      3 O1          0.5881    2.8006   -1.2050 O.2       1 <0>        -0.9590
      4 O2          2.4552    1.8397    0.0942 O.2       1 <0>        -0.9488
      5 N1          1.3497    0.5215   -1.6386 N.pl3     1 <0>        -0.9895
      6 C2          0.5218    0.5154   -2.8524 C.3       1 <0>         0.1201
      7 C3         -0.1631   -0.8494   -2.9752 C.3       1 <0>        -0.1397
      8 C4          0.8962   -1.9530   -2.9314 C.3       1 <0>        -0.1164
      9 C5          1.6338   -1.9016   -1.5914 C.3       1 <0>        -0.1235
     10 C6          2.3429   -0.5456   -1.4556 C.3       1 <0>         0.1527
     11 H1          3.1182   -0.4577   -2.2167 H         1 <0>         0.1035
     12 C7          2.9606   -0.4313   -0.0857 C.2       1 <0>         0.5247
     13 O3          2.2514   -0.3774    0.8967 O.2       1 <0>        -0.5491
     14 N2          4.3010   -0.3891    0.0477 N.am      1 <0>        -0.4929
     15 N3          4.8753   -0.2829    1.3212 N.am      1 <0>        -0.5133
     16 C8          6.2157   -0.2406    1.4546 C.2       1 <0>         0.5620
     17 O4          6.9267   -0.2947    0.4698 O.2       1 <0>        -0.5165
     18 C9          6.8206   -0.1287    2.7962 C.ar      1 <0>        -0.1501
     19 C10         6.0065   -0.0731    3.9159 C.ar      1 <0>        -0.0425
     20 C11         6.5869    0.0332    5.1876 C.ar      1 <0>        -0.0719
     21 C12         5.7905    0.0915    6.3460 C.ar      1 <0>        -0.0937
     22 C13         6.3831    0.1942    7.5665 C.ar      1 <0>        -0.1192
     23 C14         7.7709    0.2431    7.6883 C.ar      1 <0>        -0.0973
     24 C15         8.5737    0.1892    6.5907 C.ar      1 <0>        -0.1146
     25 C16         7.9996    0.0825    5.3118 C.ar      1 <0>        -0.0139
     26 C17         8.8028    0.0243    4.1610 C.ar      1 <0>        -0.1412
     27 C18         8.2243   -0.0848    2.9306 C.ar      1 <0>         0.1652
     28 O5          9.0072   -0.1460    1.8235 O.3       1 <0>        -0.4776
     29 H2         -0.9518    0.8166    0.1955 H         1 <0>         0.1191
     30 H3          0.3941    0.1239    1.1320 H         1 <0>         0.1562
     31 H4         -0.1834    1.7696    1.4877 H         1 <0>         0.1223
     32 H5         -0.2334    1.2983   -2.7835 H         1 <0>         0.0985
     33 H6          1.1516    0.6881   -3.7251 H         1 <0>         0.0794
     34 H7         -0.8610   -0.9819   -2.1485 H         1 <0>         0.0699
     35 H8         -0.7037   -0.9014   -3.9203 H         1 <0>         0.0819
     36 H9          0.4138   -2.9241   -3.0433 H         1 <0>         0.0746
     37 H10         1.6081   -1.8056   -3.7436 H         1 <0>         0.0703
     38 H11         0.9189   -2.0242   -0.7777 H         1 <0>         0.0826
     39 H12         2.3720   -2.7025   -1.5515 H         1 <0>         0.0827
     40 H13         4.8682   -0.4322   -0.7380 H         1 <0>         0.4343
     41 H14         4.3081   -0.2397    2.1069 H         1 <0>         0.4311
     42 H15         4.9324   -0.1110    3.8097 H         1 <0>         0.1369
     43 H16         4.7140    0.0553    6.2669 H         1 <0>         0.1324
     44 H17         5.7692    0.2387    8.4539 H         1 <0>         0.1281
     45 H18         8.2160    0.3254    8.6689 H         1 <0>         0.1282
     46 H19         9.6473    0.2283    6.7016 H         1 <0>         0.1326
     47 H20         9.8784    0.0619    4.2506 H         1 <0>         0.1430
     48 H21         9.2126    0.7171    1.4389 H         1 <0>         0.3963
@<TRIPOS>BOND
     1    1    2 1
     2    1   29 1
     3    1   30 1
     4    1   31 1
     5    2    3 2
     6    2    4 2
     7    2    5 1
     8    5   10 1
     9    5    6 1
    10    6    7 1
    11    6   32 1
    12    6   33 1
    13    7    8 1
    14    7   34 1
    15    7   35 1
    16    8    9 1
    17    8   36 1
    18    8   37 1
    19    9   10 1
    20    9   38 1
    21    9   39 1
    22   10   11 1
    23   10   12 1
    24   12   13 2
    25   12   14 am
    26   14   15 1
    27   14   40 1
    28   15   16 am
    29   15   41 1
    30   16   17 2
    31   16   18 1
    32   18   27 ar
    33   18   19 ar
    34   19   20 ar
    35   19   42 1
    36   20   25 ar
    37   20   21 ar
    38   21   22 ar
    39   21   43 1
    40   22   23 ar
    41   22   44 1
    42   23   24 ar
    43   23   45 1
    44   24   25 ar
    45   24   46 1
    46   25   26 ar
    47   26   27 ar
    48   26   47 1
    49   27   28 1
    50   28   48 1
@<TRIPOS>MOLECULE
ZINC59367608
   48    51     0     0     0
SMALL
USER_CHARGES

@<TRIPOS>ATOM
      1 C1         -0.0178    1.4608    0.0101 C.3       1 <0>         0.0828
      2 N1          0.0021   -0.0041    0.0020 N.am      1 <0>        -0.6215
      3 C2         -1.2769   -0.7098    0.0045 C.3       1 <0>         0.1394
      4 H1         -1.8080   -0.6143    0.9516 H         1 <0>         0.1292
      5 C3         -2.0905   -0.1700   -1.2106 C.3       1 <0>         0.0740
      6 N2         -1.5344   -0.9055   -2.3609 N.am      1 <0>        -0.5591
      7 C4         -0.9642   -2.0609   -1.9552 C.2       1 <0>         0.5269
      8 O1         -0.4354   -2.8770   -2.6800 O.2       1 <0>        -0.4799
      9 C5         -1.0864   -2.1790   -0.4334 C.3       1 <0>        -0.1339
     10 H2         -1.9748   -2.7573   -0.1792 H         1 <0>         0.1464
     11 C6          0.1320   -2.8012    0.2178 C.3       1 <0>         0.2037
     12 H3          0.3243   -3.7725   -0.2379 H         1 <0>         0.1141
     13 N3          1.3090   -1.9520    0.0509 N.am      1 <0>        -0.7258
     14 C7          1.1879   -0.6170   -0.0126 C.2       1 <0>         0.7126
     15 O2          2.1964    0.0614   -0.0467 O.2       1 <0>        -0.5833
     16 C8         -0.1357   -2.9898    1.6888 C.ar      1 <0>        -0.1125
     17 C9         -0.0206   -1.9187    2.5552 C.ar      1 <0>        -0.1020
     18 C10        -0.2661   -2.0917    3.9045 C.ar      1 <0>        -0.1175
     19 C11        -0.6272   -3.3356    4.3874 C.ar      1 <0>        -0.1105
     20 C12        -0.7431   -4.4064    3.5210 C.ar      1 <0>        -0.1171
     21 C13        -0.5018   -4.2325    2.1710 C.ar      1 <0>        -0.1033
     22 C14        -1.5897   -0.4676   -3.6887 C.ar      1 <0>         0.2310
     23 C15        -2.1965    0.7427   -3.9975 C.ar      1 <0>        -0.1811
     24 C16        -2.2494    1.1722   -5.3091 C.ar      1 <0>         0.0139
     25 C17        -1.6995    0.3981   -6.3143 C.ar      1 <0>        -0.7037
     26 C18        -1.0950   -0.8078   -6.0102 C.ar      1 <0>         0.0153
     27 C19        -1.0329   -1.2397   -4.6998 C.ar      1 <0>        -0.1809
     28 S1         -1.7696    0.9492   -7.9865 S.o2      1 <0>         2.7038
     29 O3         -1.6679   -0.2107   -8.8010 O.2       1 <0>        -0.9633
     30 O4         -2.8680    1.8467   -8.0725 O.2       1 <0>        -0.9642
     31 N4         -0.4043    1.8442   -8.2647 N.pl3     1 <0>        -1.2504
     32 H4          1.0048    1.8381    0.0023 H         1 <0>         0.0989
     33 H5         -0.5450    1.8219   -0.8730 H         1 <0>         0.0599
     34 H6         -0.5280    1.8123    0.9069 H         1 <0>         0.0663
     35 H7         -3.1509   -0.3923   -1.0905 H         1 <0>         0.1036
     36 H8         -1.9343    0.9021   -1.3300 H         1 <0>         0.1078
     37 H9          2.1863   -2.3576   -0.0309 H         1 <0>         0.4230
     38 H10         0.2615   -0.9469    2.1778 H         1 <0>         0.1204
     39 H11        -0.1755   -1.2551    4.5814 H         1 <0>         0.1235
     40 H12        -0.8183   -3.4709    5.4417 H         1 <0>         0.1244
     41 H13        -1.0249   -5.3783    3.8984 H         1 <0>         0.1262
     42 H14        -0.5960   -5.0683    1.4935 H         1 <0>         0.1266
     43 H15        -2.6268    1.3474   -3.2129 H         1 <0>         0.1374
     44 H16        -2.7212    2.1134   -5.5499 H         1 <0>         0.1492
     45 H17        -0.6670   -1.4105   -6.7976 H         1 <0>         0.1486
     46 H18        -0.5564   -2.1794   -4.4623 H         1 <0>         0.1628
     47 H19         0.2449    1.9717   -7.5554 H         1 <0>         0.4168
     48 H20        -0.2538    2.2408   -9.1370 H         1 <0>         0.4213
@<TRIPOS>BOND
     1    1    2 1
     2    1   32 1
     3    1   33 1
     4    1   34 1
     5    2   14 am
     6    2    3 1
     7    3    4 1
     8    3    9 1
     9    3    5 1
    10    5    6 1
    11    5   35 1
    12    5   36 1
    13    6    7 am
    14    6   22 1
    15    7    8 2
    16    7    9 1
    17    9   10 1
    18    9   11 1
    19   11   12 1
    20   11   13 1
    21   11   16 1
    22   13   14 am
    23   13   37 1
    24   14   15 2
    25   16   21 ar
    26   16   17 ar
    27   17   18 ar
    28   17   38 1
    29   18   19 ar
    30   18   39 1
    31   19   20 ar
    32   19   40 1
    33   20   21 ar
    34   20   41 1
    35   21   42 1
    36   22   27 ar
    37   22   23 ar
    38   23   24 ar
    39   23   43 1
    40   24   25 ar
    41   24   44 1
    42   25   26 ar
    43   25   28 1
    44   26   27 ar
    45   26   45 1
    46   27   46 1
    47   28   29 2
    48   28   30 2
    49   28   31 1
    50   31   47 1
    51   31   48 1
@<TRIPOS>MOLECULE
ZINC65406485
   44    47     0     0     0
SMALL
USER_CHARGES

@<TRIPOS>ATOM
      1 C1         -0.0162    1.3437    0.0094 C.2       1 <0>        -0.2137
      2 C2          1.3243    1.7753   -0.0011 C.2       1 <0>        -0.1917
      3 C3          2.0972    0.6536   -0.0145 C.2       1 <0>         0.0111
      4 O1          1.2797   -0.4177   -0.0124 O.3       1 <0>        -0.1736
      5 C4          0.0021   -0.0041    0.0020 C.2       1 <0>        -0.0341
      6 C5          3.5674    0.6180   -0.0287 C.2       1 <0>        -0.0837
      7 C6          4.2041   -0.5495   -0.0410 C.2       1 <0>        -0.1255
      8 C7          5.7106   -0.5859   -0.0556 C.3       1 <0>         0.0163
      9 H1          6.0988    0.4326   -0.0538 H         1 <0>         0.0952
     10 C8          6.1909   -1.3125   -1.3132 C.3       1 <0>        -0.1322
     11 C9          5.9201   -2.7875   -1.1885 C.2       1 <0>         0.5337
     12 O2          5.6129   -3.4244   -2.1737 O.2       1 <0>        -0.5085
     13 N1          6.0145   -3.4097    0.0011 N.am      1 <0>        -0.6457
     14 C10         6.3391   -2.6952    1.1464 C.ar      1 <0>         0.4839
     15 C11         6.2062   -1.3133    1.1636 C.ar      1 <0>        -0.3438
     16 C12         6.5376   -0.6223    2.3230 C.ar      1 <0>         0.5143
     17 N2          6.9719   -1.3108    3.3778 N.ar      1 <0>        -0.6340
     18 C13         7.0871   -2.6291    3.3263 C.ar      1 <0>         0.6389
     19 N3          6.7794   -3.3167    2.2359 N.ar      1 <0>        -0.6271
     20 N4          7.5419   -3.3080    4.4432 N.pl3     1 <0>        -0.5830
     21 C14         7.6919   -4.7718    4.4308 C.3       1 <0>         0.0922
     22 C15         9.0962   -5.1183    4.9385 C.3       1 <0>         0.0468
     23 O3          9.3173   -4.4680    6.1923 O.3       1 <0>        -0.3796
     24 C16         9.2851   -3.0403    6.1248 C.3       1 <0>         0.0466
     25 C17         7.8958   -2.5869    5.6761 C.3       1 <0>         0.0934
     26 N5          6.4182    0.7574    2.3811 N.pl3     1 <0>        -0.8291
     27 H2         -0.8933    1.9737    0.0252 H         1 <0>         0.1509
     28 H3          1.6722    2.7977    0.0011 H         1 <0>         0.1510
     29 H4         -0.8670   -0.6453    0.0072 H         1 <0>         0.2042
     30 H5          4.1299    1.5399   -0.0291 H         1 <0>         0.1440
     31 H6          3.6416   -1.4714   -0.0406 H         1 <0>         0.1161
     32 H7          5.6629   -0.9197   -2.1821 H         1 <0>         0.1169
     33 H8          7.2615   -1.1503   -1.4382 H         1 <0>         0.1127
     34 H9          5.8543   -4.3646    0.0588 H         1 <0>         0.4183
     35 H10         6.9441   -5.2230    5.0831 H         1 <0>         0.0760
     36 H11         7.5664   -5.1452    3.4145 H         1 <0>         0.1086
     37 H12         9.1806   -6.1972    5.0681 H         1 <0>         0.1089
     38 H13         9.8385   -4.7785    4.2162 H         1 <0>         0.0557
     39 H14         9.5053   -2.6243    7.1079 H         1 <0>         0.1089
     40 H15        10.0281   -2.6929    5.4069 H         1 <0>         0.0552
     41 H16         7.9053   -1.5140    5.4840 H         1 <0>         0.1089
     42 H17         7.1689   -2.8143    6.4558 H         1 <0>         0.0751
     43 H18         6.1007    1.2497    1.6079 H         1 <0>         0.4112
     44 H19         6.6520    1.2306    3.1949 H         1 <0>         0.4103
@<TRIPOS>BOND
     1    1    5 2
     2    1    2 1
     3    1   27 1
     4    2    3 2
     5    2   28 1
     6    3    4 1
     7    3    6 1
     8    4    5 1
     9    5   29 1
    10    6    7 2
    11    6   30 1
    12    7    8 1
    13    7   31 1
    14    8    9 1
    15    8   15 1
    16    8   10 1
    17   10   11 1
    18   10   32 1
    19   10   33 1
    20   11   12 2
    21   11   13 am
    22   13   14 1
    23   13   34 1
    24   14   19 ar
    25   14   15 ar
    26   15   16 ar
    27   16   17 ar
    28   16   26 1
    29   17   18 ar
    30   18   19 ar
    31   18   20 1
    32   20   25 1
    33   20   21 1
    34   21   22 1
    35   21   35 1
    36   21   36 1
    37   22   23 1
    38   22   37 1
    39   22   38 1
    40   23   24 1
    41   24   25 1
    42   24   39 1
    43   24   40 1
    44   25   41 1
    45   25   42 1
    46   26   43 1
    47   26   44 1
@<TRIPOS>MOLECULE
ZINC67414965
   58    62     0     0     0
SMALL
NO_CHARGES

@<TRIPOS>ATOM
      1 C1          2.3248   -4.9111   -0.8771 C.3       1 <0>        -0.0767
      2 C2          1.3925   -3.7821   -0.5208 C.2       1 <0>         0.1115
      3 C3          0.7521   -2.8661   -1.4583 C.ar      1 <0>        -0.2046
      4 C4          0.7718   -2.7244   -2.8507 C.ar      1 <0>         0.0082
      5 C5          0.0152   -1.7075   -3.4123 C.ar      1 <0>         0.0399
      6 C6         -0.7300   -0.8713   -2.5812 C.ar      1 <0>         0.1646
      7 N1         -0.7316   -1.0253   -1.2761 N.ar      1 <0>        -0.4824
      8 C7         -0.0259   -1.9818   -0.6850 C.ar      1 <0>         0.3054
      9 N2          0.1455   -2.3533    0.6223 N.pl3     1 <0>        -0.3933
     10 N3          1.0088   -3.4518    0.6792 N.2       1 <0>        -0.2356
     11 C8         -0.4801   -1.7052    1.7776 C.3       1 <0>         0.1117
     12 N4         -0.0003   -1.5216   -4.7991 N.am      1 <0>        -0.6333
     13 C9          0.1124   -2.5826   -5.6226 C.2       1 <0>         0.5049
     14 O1          0.1310   -3.7067   -5.1650 O.2       1 <0>        -0.5024
     15 C10         0.2144   -2.3752   -7.0980 C.2       1 <0>         0.5092
     16 O2          0.1957   -1.2512   -7.5555 O.2       1 <0>        -0.5148
     17 N5          0.3270   -3.4361   -7.9215 N.am      1 <0>        -0.6869
     18 C11         0.4268   -3.2332   -9.3653 C.3       1 <0>         0.1524
     19 C12        -0.9670   -3.1372   -9.9901 C.3       1 <0>        -0.0971
     20 H1         -1.4840   -2.2717   -9.5469 H         1 <0>         0.0709
     21 C13        -1.7680   -4.3939   -9.6796 C.3       1 <0>        -0.1101
     22 C14        -1.0629   -5.6690  -10.1124 C.3       1 <0>        -0.1188
     23 C15         0.4038   -5.7112   -9.7157 C.3       1 <0>        -0.1140
     24 C16         1.1411   -4.4155  -10.0240 C.3       1 <0>        -0.0935
     25 H2          2.1574   -4.4805   -9.6050 H         1 <0>         0.0724
     26 C17         1.2494   -4.1737  -11.5240 C.3       1 <0>        -0.0554
     27 N6         -0.0426   -3.9340  -12.1592 N.4       1 <0>        -0.2953
     28 C18        -0.8381   -2.9092  -11.4905 C.3       1 <0>        -0.0558
     29 C19         0.2040   -3.4903  -13.5377 C.3       1 <0>        -0.0994
     30 C20        -0.5375   -4.2215  -14.6585 C.3       1 <0>        -0.1920
     31 C21         0.9634   -4.4444  -14.4617 C.3       1 <0>        -0.1878
     32 H3          1.7473   -5.8204   -1.0438 H         1 <0>         0.0871
     33 H4          2.8728   -4.6573   -1.7845 H         1 <0>         0.0833
     34 H5          3.0288   -5.0724   -0.0607 H         1 <0>         0.0831
     35 H6          1.3590   -3.3872   -3.4690 H         1 <0>         0.1521
     36 H7         -1.3187   -0.0793   -3.0200 H         1 <0>         0.1719
     37 H8         -1.4371   -2.1827    1.9879 H         1 <0>         0.0718
     38 H9          0.1723   -1.8011    2.6455 H         1 <0>         0.0892
     39 H10        -0.6410   -0.6495    1.5589 H         1 <0>         0.0909
     40 H11        -0.0921   -0.6291   -5.1678 H         1 <0>         0.4259
     41 H12         0.3419   -4.3344   -7.5558 H         1 <0>         0.4119
     42 H13         0.9807   -2.3144   -9.5681 H         1 <0>         0.0942
     43 H14        -1.9769   -4.4400   -8.6048 H         1 <0>         0.0586
     44 H15        -2.7379   -4.3319  -10.1938 H         1 <0>         0.0624
     45 H16        -1.5691   -6.5174   -9.6078 H         1 <0>         0.0565
     46 H17        -1.1886   -5.8471  -11.1759 H         1 <0>         0.0669
     47 H18         0.4853   -5.9341   -8.6459 H         1 <0>         0.0595
     48 H19         0.8942   -6.5346  -10.2544 H         1 <0>         0.0670
     49 H20         1.9010   -3.3093  -11.7010 H         1 <0>         0.0674
     50 H21         1.7226   -5.0448  -11.9936 H         1 <0>         0.0645
     51 H22        -1.8402   -2.8871  -11.9363 H         1 <0>         0.0634
     52 H23        -0.3782   -1.9288  -11.6652 H         1 <0>         0.0664
     53 H24         0.3796   -2.4219  -13.6634 H         1 <0>         0.1041
     54 H25        -1.2083   -5.0318  -14.3731 H         1 <0>         0.0906
     55 H26        -0.8501   -3.6341  -15.5219 H         1 <0>         0.0860
     56 H27         1.6381   -4.0037  -15.1956 H         1 <0>         0.0871
     57 H28         1.2799   -5.4014  -14.0468 H         1 <0>         0.0907
     58 H29        -0.5642   -4.7933  -12.2268 H         1 <0>         0.2458
@<TRIPOS>BOND
     1    1    2 1
     2    1   32 1
     3    1   33 1
     4    1   34 1
     5    2   10 2
     6    2    3 1
     7    3    8 ar
     8    3    4 ar
     9    4    5 ar
    10    4   35 1
    11    5    6 ar
    12    5   12 1
    13    6    7 ar
    14    6   36 1
    15    7    8 ar
    16    8    9 1
    17    9   10 1
    18    9   11 1
    19   11   37 1
    20   11   38 1
    21   11   39 1
    22   12   13 am
    23   12   40 1
    24   13   14 2
    25   13   15 1
    26   15   16 2
    27   15   17 am
    28   17   18 1
    29   17   41 1
    30   18   24 1
    31   18   19 1
    32   18   42 1
    33   19   20 1
    34   19   28 1
    35   19   21 1
    36   21   22 1
    37   21   43 1
    38   21   44 1
    39   22   23 1
    40   22   45 1
    41   22   46 1
    42   23   24 1
    43   23   47 1
    44   23   48 1
    45   24   25 1
    46   24   26 1
    47   26   27 1
    48   26   49 1
    49   26   50 1
    50   27   28 1
    51   27   29 1
    52   27   58 1
    53   28   51 1
    54   28   52 1
    55   29   31 1
    56   29   30 1
    57   29   53 1
    58   30   31 1
    59   30   54 1
    60   30   55 1
    61   31   56 1
    62   31   57 1
@<TRIPOS>MOLECULE
ZINC06404175
   33    35     0     0     0
SMALL
USER_CHARGES
3-(2,5-dimethylthiazol-4-yl)-5-hydroxy-7-methyl-chromen-4-one
@<TRIPOS>ATOM
      1 C1          8.8145    0.5837    0.0178 C.3       1 <0>        -0.1248
      2 C2          7.4353    1.1906    0.0419 C.ar      1 <0>         0.0255
      3 C3          7.2944    2.5635    0.1598 C.ar      1 <0>        -0.2038
      4 C4          6.0331    3.1338    0.1837 C.ar      1 <0>         0.2672
      5 C5          4.9047    2.3110    0.0873 C.ar      1 <0>        -0.3300
      6 C6          5.0517    0.9190   -0.0325 C.ar      1 <0>         0.1888
      7 C7          6.3294    0.3718   -0.0536 C.ar      1 <0>        -0.1926
      8 O1          3.9654    0.1269   -0.1261 O.3       1 <0>        -0.2138
      9 C8          2.7136    0.5941   -0.1121 C.2       1 <0>         0.1436
     10 C9          2.4288    1.9167   -0.0019 C.2       1 <0>        -0.2104
     11 C10         3.5436    2.8740    0.1008 C.2       1 <0>         0.4486
     12 O2          3.3491    4.0736    0.1966 O.2       1 <0>        -0.4619
     13 C11         1.0222    2.3895    0.0088 C.2       1 <0>         0.1178
     14 C12         0.1218    1.9464   -0.9217 C.2       1 <0>        -0.1789
     15 S1         -1.3404    2.8407   -0.4166 S.3       1 <0>         0.0471
     16 C13        -0.6415    3.6765    0.9352 C.2       1 <0>         0.0966
     17 N1          0.5994    3.2530    0.9183 N.2       1 <0>        -0.4854
     18 C14        -1.2945    4.6479    1.8845 C.3       1 <0>        -0.0699
     19 C15         0.3123    0.9780   -2.0605 C.3       1 <0>        -0.0703
     20 O3          5.8920    4.4784    0.2999 O.3       1 <0>        -0.5052
     21 H1          9.5675    1.3810    0.1039 H         1 <0>         0.0758
     22 H2          8.9603    0.0423   -0.9285 H         1 <0>         0.0830
     23 H3          8.9224   -0.1151    0.8604 H         1 <0>         0.0830
     24 H4          8.1706    3.1906    0.2335 H         1 <0>         0.1426
     25 H5          6.4564   -0.6968   -0.1450 H         1 <0>         0.1452
     26 H6          1.8967   -0.1078   -0.1919 H         1 <0>         0.2032
     27 H7         -0.5568    4.9876    2.6264 H         1 <0>         0.0971
     28 H8         -2.1305    4.1517    2.3992 H         1 <0>         0.0915
     29 H9         -1.6728    5.5134    1.3207 H         1 <0>         0.0919
     30 H10        -0.6370    0.8592   -2.6034 H         1 <0>         0.0824
     31 H11         0.6320    0.0033   -1.6633 H         1 <0>         0.0814
     32 H12         1.0809    1.3647   -2.7459 H         1 <0>         0.0858
     33 H13         4.8876    4.9265    0.3184 H         1 <0>         0.4488
@<TRIPOS>BOND
     1    1    2 1
     2    1   21 1
     3    1   22 1
     4    1   23 1
     5    2    7 ar
     6    2    3 ar
     7    3    4 ar
     8    3   24 1
     9    4    5 ar
    10    4   20 1
    11    5   11 1
    12    5    6 ar
    13    6    7 ar
    14    6    8 1
    15    7   25 1
    16    8    9 1
    17    9   10 2
    18    9   26 1
    19   10   11 1
    20   10   13 1
    21   11   12 2
    22   13   17 1
    23   13   14 2
    24   14   15 1
    25   14   19 1
    26   15   16 1
    27   16   17 2
    28   16   18 1
    29   18   27 1
    30   18   28 1
    31   18   29 1
    32   19   30 1
    33   19   31 1
    34   19   32 1
    35   20   33 1
@<TRIPOS>MOLECULE
ZINC39468512
   34    36     0     0     0
SMALL
USER_CHARGES

@<TRIPOS>ATOM
      1 C1         -0.0225    1.8097    0.0120 C.3       1 <0>        -0.0188
      2 S1          0.0021   -0.0041    0.0020 S.3       1 <0>        -0.8013
      3 P1          1.0204   -0.4933   -1.7919 P.3       1 <0>         2.3256
      4 O1          0.2675    0.0109   -2.9621 O.2       1 <0>        -0.9333
      5 N1          1.2311   -2.1263   -1.9031 N.pl3     1 <0>        -0.9960
      6 N2          2.2522   -2.6932   -1.1671 N.3       1 <0>        -0.2716
      7 C2          2.2797   -4.1292   -1.4933 C.3       1 <0>         0.0404
      8 C3          3.3529   -4.8527   -0.6931 C.3       1 <0>        -0.0553
      9 H1          3.3701   -5.9032   -0.9831 H         1 <0>         0.1137
     10 C4          3.0767   -4.7502    0.7827 C.2       1 <0>        -0.0792
     11 C5          4.0752   -4.9168    1.6487 C.2       1 <0>        -0.0818
     12 C6          5.4301   -5.2105    1.1450 C.2       1 <0>         0.1021
     13 C7          5.7539   -4.8917   -0.1068 C.2       1 <0>        -0.1774
     14 C8          4.7204   -4.2268   -0.9831 C.3       1 <0>        -0.0455
     15 H2          4.9855   -4.3752   -2.0299 H         1 <0>         0.1029
     16 C9          4.6558   -2.7362   -0.6479 C.3       1 <0>        -0.1037
     17 C10         3.5404   -2.0514   -1.4457 C.3       1 <0>        -0.0140
     18 H3          3.7591   -2.1256   -2.5109 H         1 <0>         0.0798
     19 C11         3.5334   -0.5738   -1.0339 C.3       1 <0>         0.0862
     20 O2          2.5228    0.1309   -1.7760 O.3       1 <0>        -0.6759
     21 F1          6.3397   -5.8006    1.9510 F         1 <0>        -0.1287
     22 Cl1         3.7844   -4.7887    3.3554 Cl        1 <0>        -0.0497
     23 H4          1.0001    2.1870    0.0043 H         1 <0>         0.0859
     24 H5         -0.5497    2.1708   -0.8711 H         1 <0>         0.0943
     25 H6         -0.5327    2.1613    0.9088 H         1 <0>         0.1154
     26 H7          0.6576   -2.6690   -2.4665 H         1 <0>         0.4249
     27 H8          1.3077   -4.5664   -1.2650 H         1 <0>         0.1035
     28 H9          2.4842   -4.2504   -2.5571 H         1 <0>         0.0666
     29 H10         2.0776   -4.5431    1.1367 H         1 <0>         0.1469
     30 H11         6.7461   -5.0966   -0.4810 H         1 <0>         0.1449
     31 H12         4.4614   -2.6156    0.4178 H         1 <0>         0.0871
     32 H13         5.6105   -2.2710   -0.8932 H         1 <0>         0.0934
     33 H14         3.3213   -0.4953    0.0324 H         1 <0>         0.0895
     34 H15         4.5089   -0.1345   -1.2424 H         1 <0>         0.1291
@<TRIPOS>BOND
     1    1    2 1
     2    1   23 1
     3    1   24 1
     4    1   25 1
     5    2    3 1
     6    3   20 1
     7    3    4 2
     8    3    5 1
     9    5    6 1
    10    5   26 1
    11    6   17 1
    12    6    7 1
    13    7    8 1
    14    7   27 1
    15    7   28 1
    16    8    9 1
    17    8   14 1
    18    8   10 1
    19   10   11 2
    20   10   29 1
    21   11   12 1
    22   11   22 1
    23   12   13 2
    24   12   21 1
    25   13   14 1
    26   13   30 1
    27   14   15 1
    28   14   16 1
    29   16   17 1
    30   16   31 1
    31   16   32 1
    32   17   18 1
    33   17   19 1
    34   19   20 1
    35   19   33 1
    36   19   34 1
@<TRIPOS>MOLECULE
ZINC50429766
   38    40     0     0     0
SMALL
USER_CHARGES

@<TRIPOS>ATOM
      1 C1         -0.0184    1.5028    0.0103 C.3       1 <0>        -0.1116
      2 C2          0.0021   -0.0041    0.0020 C.ar      1 <0>        -0.1322
      3 C3          0.0057   -0.6863   -1.2004 C.ar      1 <0>        -0.0731
      4 C4          0.0244   -2.0658   -1.2164 C.ar      1 <0>        -0.1249
      5 C5          0.0402   -2.7780   -0.0150 C.ar      1 <0>         0.0134
      6 C6          0.0369   -2.0896    1.1984 C.ar      1 <0>        -0.1523
      7 C7          0.0230   -0.7030    1.2032 C.ar      1 <0>         0.2209
      8 N1          0.0245   -0.0086    2.4155 N.pl3     1 <0>        -0.7328
      9 C8          0.0465   -0.7453    3.6816 C.3       1 <0>         0.2308
     10 H1          0.6469   -1.6482    3.5705 H         1 <0>         0.0866
     11 C9          0.6429    0.1391    4.7835 C.3       1 <0>        -0.1256
     12 C10         0.4305   -0.5275    6.1454 C.3       1 <0>        -0.1094
     13 C11        -1.0581   -0.4812    6.5116 C.3       1 <0>        -0.0592
     14 C12        -1.8529   -0.9968    5.3380 C.2       1 <0>         0.0952
     15 C13        -1.3607   -1.1165    4.0780 C.2       1 <0>        -0.2639
     16 C14        -2.3721   -1.6257    3.2667 C.2       1 <0>         0.0696
     17 N2         -3.4369   -1.8066    4.0093 N.2       1 <0>        -0.2995
     18 N3         -3.1300   -1.4126    5.3220 N.pl3     1 <0>        -0.3675
     19 C15        -4.0397   -1.4507    6.4697 C.3       1 <0>         0.0981
     20 C16         0.0591   -4.2098   -0.0286 C.1       1 <0>         0.2536
     21 N4          0.0741   -5.3456   -0.0395 N.1       1 <0>        -0.4169
     22 H2          1.0042    1.8801    0.0026 H         1 <0>         0.0714
     23 H3         -0.5455    1.8639   -0.8728 H         1 <0>         0.0711
     24 H4         -0.5286    1.8543    0.9071 H         1 <0>         0.0614
     25 H5         -0.0064   -0.1375   -2.1305 H         1 <0>         0.1321
     26 H6          0.0265   -2.5949   -2.1579 H         1 <0>         0.1288
     27 H7          0.0490   -2.6346    2.1307 H         1 <0>         0.1324
     28 H8          0.0110    0.9613    2.4189 H         1 <0>         0.4019
     29 H9          1.7103    0.2705    4.6059 H         1 <0>         0.0775
     30 H10         0.1510    1.1118    4.7745 H         1 <0>         0.0710
     31 H11         0.7606   -1.5652    6.0973 H         1 <0>         0.0725
     32 H12         1.0076    0.0025    6.9031 H         1 <0>         0.0803
     33 H13        -1.2413   -1.1093    7.3834 H         1 <0>         0.0815
     34 H14        -1.3506    0.5458    6.7304 H         1 <0>         0.0864
     35 H15        -2.2929   -1.8346    2.2100 H         1 <0>         0.1792
     36 H16        -4.5741   -0.5035    6.5414 H         1 <0>         0.0761
     37 H17        -4.7552   -2.2626    6.3394 H         1 <0>         0.0906
     38 H18        -3.4665   -1.6145    7.3823 H         1 <0>         0.0866
@<TRIPOS>BOND
     1    1    2 1
     2    1   22 1
     3    1   23 1
     4    1   24 1
     5    2    7 ar
     6    2    3 ar
     7    3    4 ar
     8    3   25 1
     9    4    5 ar
    10    4   26 1
    11    5    6 ar
    12    5   20 1
    13    6    7 ar
    14    6   27 1
    15    7    8 1
    16    8    9 1
    17    8   28 1
    18    9   10 1
    19    9   15 1
    20    9   11 1
    21   11   12 1
    22   11   29 1
    23   11   30 1
    24   12   13 1
    25   12   31 1
    26   12   32 1
    27   13   14 1
    28   13   33 1
    29   13   34 1
    30   14   18 1
    31   14   15 2
    32   15   16 1
    33   16   17 2
    34   16   35 1
    35   17   18 1
    36   18   19 1
    37   19   36 1
    38   19   37 1
    39   19   38 1
    40   20   21 3
@<TRIPOS>MOLECULE
ZINC59171173
   36    38     0     0     0
SMALL
USER_CHARGES

@<TRIPOS>ATOM
      1 C1         -0.0184    1.5028    0.0103 C.3       1 <0>        -0.1176
      2 C2          0.0021   -0.0041    0.0020 C.ar      1 <0>        -0.0481
      3 C3          0.0058   -0.6881   -1.1977 C.ar      1 <0>        -0.1389
      4 C4          0.0246   -2.0751   -1.2054 C.ar      1 <0>         0.1265
      5 C5          0.0402   -2.7758   -0.0080 C.ar      1 <0>        -0.1418
      6 C6          0.0365   -2.0928    1.1918 C.ar      1 <0>        -0.0786
      7 C7          0.0230   -0.7045    1.2000 C.ar      1 <0>         0.0950
      8 N1          0.0251   -0.0097    2.4194 N.am      1 <0>        -0.5491
      9 C8         -1.1109    0.3394    3.0818 C.2       1 <0>         0.5421
     10 O1         -2.2443    0.3103    2.6524 O.2       1 <0>        -0.4546
     11 C9         -0.6766    0.7658    4.4477 C.3       1 <0>        -0.1298
     12 H1         -0.5796   -0.1063    5.0943 H         1 <0>         0.1252
     13 C10        -1.4338    1.8562    5.1680 C.3       1 <0>        -0.0976
     14 C11        -0.7063    2.0919    6.5046 C.3       1 <0>        -0.1212
     15 C12         0.7654    2.4365    6.3041 C.3       1 <0>        -0.1209
     16 C13         1.4857    1.3926    5.4272 C.3       1 <0>        -0.0986
     17 C14         0.7336    1.3402    4.1185 C.3       1 <0>        -0.1296
     18 H2          0.6404    2.3468    3.7108 H         1 <0>         0.1265
     19 C15         1.1633    0.3754    3.0574 C.2       1 <0>         0.5442
     20 O2          2.2943    0.0126    2.8143 O.2       1 <0>        -0.4563
     21 O3          0.0274   -2.7481   -2.3867 O.3       1 <0>        -0.4962
     22 H3          1.0042    1.8801    0.0026 H         1 <0>         0.0770
     23 H4         -0.5455    1.8639   -0.8728 H         1 <0>         0.0779
     24 H5         -0.5286    1.8543    0.9071 H         1 <0>         0.0636
     25 H6         -0.0063   -0.1431   -2.1300 H         1 <0>         0.1387
     26 H7          0.0549   -3.8557   -0.0145 H         1 <0>         0.1387
     27 H8          0.0479   -2.6383    2.1239 H         1 <0>         0.1313
     28 H9         -1.4271    2.7699    4.5737 H         1 <0>         0.0753
     29 H10        -2.4598    1.5380    5.3530 H         1 <0>         0.0828
     30 H11        -1.1931    2.9117    7.0329 H         1 <0>         0.0734
     31 H12        -0.7791    1.1892    7.1112 H         1 <0>         0.0665
     32 H13         0.8392    3.4133    5.8260 H         1 <0>         0.0667
     33 H14         1.2550    2.4813    7.2769 H         1 <0>         0.0735
     34 H15         2.5179    1.6969    5.2541 H         1 <0>         0.0829
     35 H16         1.4577    0.4152    5.9088 H         1 <0>         0.0752
     36 H17         0.9115   -2.9307   -2.7332 H         1 <0>         0.3957
@<TRIPOS>BOND
     1    1    2 1
     2    1   22 1
     3    1   23 1
     4    1   24 1
     5    2    7 ar
     6    2    3 ar
     7    3    4 ar
     8    3   25 1
     9    4    5 ar
    10    4   21 1
    11    5    6 ar
    12    5   26 1
    13    6    7 ar
    14    6   27 1
    15    7    8 1
    16    8   19 am
    17    8    9 am
    18    9   10 2
    19    9   11 1
    20   11   12 1
    21   11   17 1
    22   11   13 1
    23   13   14 1
    24   13   28 1
    25   13   29 1
    26   14   15 1
    27   14   30 1
    28   14   31 1
    29   15   16 1
    30   15   32 1
    31   15   33 1
    32   16   17 1
    33   16   34 1
    34   16   35 1
    35   17   18 1
    36   17   19 1
    37   19   20 2
    38   21   36 1
@<TRIPOS>MOLECULE
ZINC65403627
   32    34     0     0     0
SMALL
USER_CHARGES

@<TRIPOS>ATOM
      1 C1         -0.0187    1.5258    0.0104 C.3       1 <0>        -0.1507
      2 C2          0.0021   -0.0041    0.0020 C.3       1 <0>        -0.0454
      3 C3          0.7074   -0.4901   -1.2379 C.2       1 <0>        -0.0029
      4 C4          2.0249   -0.7389   -1.3470 C.2       1 <0>        -0.2102
      5 C5          2.2514   -1.1722   -2.6736 C.2       1 <0>        -0.1904
      6 C6          1.0589   -1.1622   -3.2958 C.2       1 <0>        -0.0195
      7 O1          0.1265   -0.7537   -2.4197 O.3       1 <0>        -0.1680
      8 C7          0.8103   -1.5491   -4.7309 C.3       1 <0>         0.0815
      9 H1          1.7500   -1.8425   -5.1989 H         1 <0>         0.1291
     10 C8          0.2092   -0.3629   -5.4858 C.3       1 <0>        -0.1386
     11 C9         -1.2307   -0.1409   -5.1167 C.2       1 <0>         0.5333
     12 O2         -1.6450    0.9917   -4.9867 O.2       1 <0>        -0.4999
     13 N1         -2.0735   -1.1835   -4.9273 N.am      1 <0>        -0.6175
     14 C10        -1.5225   -2.4496   -4.8716 C.2       1 <0>         0.0448
     15 C11        -0.1705   -2.7090   -4.7843 C.2       1 <0>        -0.2524
     16 C12         0.1441   -4.0530   -4.7544 C.2       1 <0>         0.1485
     17 N2         -0.8433   -4.9141   -4.7909 N.2       1 <0>        -0.4621
     18 S1         -2.2286   -3.9532   -4.8656 S.3       1 <0>         0.3392
     19 C13         1.5767   -4.5150   -4.6815 C.3       1 <0>        -0.0899
     20 H2          1.0039    1.9031    0.0027 H         1 <0>         0.0606
     21 H3         -0.5459    1.8868   -0.8726 H         1 <0>         0.0584
     22 H4         -0.5289    1.8773    0.9072 H         1 <0>         0.0669
     23 H5          0.5293   -0.3651    0.8851 H         1 <0>         0.0949
     24 H6         -1.0205   -0.3814    0.0098 H         1 <0>         0.0791
     25 H7          2.7672   -0.6284   -0.5704 H         1 <0>         0.1486
     26 H8          3.1999   -1.4563   -3.1047 H         1 <0>         0.1507
     27 H9          0.7795    0.5352   -5.2486 H         1 <0>         0.1183
     28 H10         0.2764   -0.5524   -6.5571 H         1 <0>         0.1179
     29 H11        -3.0292   -1.0467   -4.8338 H         1 <0>         0.4240
     30 H12         1.8736   -4.6149   -3.6375 H         1 <0>         0.0866
     31 H13         1.6733   -5.4792   -5.1806 H         1 <0>         0.0832
     32 H14         2.2193   -3.7851   -5.1738 H         1 <0>         0.0817
@<TRIPOS>BOND
     1    1    2 1
     2    1   20 1
     3    1   21 1
     4    1   22 1
     5    2    3 1
     6    2   23 1
     7    2   24 1
     8    3    7 1
     9    3    4 2
    10    4    5 1
    11    4   25 1
    12    5    6 2
    13    5   26 1
    14    6    7 1
    15    6    8 1
    16    8    9 1
    17    8   15 1
    18    8   10 1
    19   10   11 1
    20   10   27 1
    21   10   28 1
    22   11   12 2
    23   11   13 am
    24   13   14 1
    25   13   29 1
    26   14   18 1
    27   14   15 2
    28   15   16 1
    29   16   17 2
    30   16   19 1
    31   17   18 1
    32   19   30 1
    33   19   31 1
    34   19   32 1
@<TRIPOS>MOLECULE
ZINC13204284
   47    50     0     0     0
SMALL
USER_CHARGES
2-[3-[2-[[(1S)-1-(1,3-benzodioxol-5-yl)ethyl]amino]-2-oxo-ethyl]sulfanyl-5-(2-thienyl)-1,2,4-triazol-4-yl]acetic acid
@<TRIPOS>ATOM
      1 C1          4.3929   13.4849   -1.5981 C.3       1 <0>        -0.1611
      2 C2          4.3288   13.0604   -0.1295 C.3       1 <0>         0.1894
      3 H1          5.3114   12.7154    0.1922 H         1 <0>         0.1030
      4 C3          3.9076   14.2353    0.7150 C.ar      1 <0>        -0.0801
      5 C4          2.5724   14.5854    0.7930 C.ar      1 <0>        -0.1027
      6 C5          2.1810   15.6620    1.5668 C.ar      1 <0>        -0.0938
      7 C6          3.1272   16.3936    2.2661 C.ar      1 <0>         0.0313
      8 C7          4.4722   16.0410    2.1875 C.ar      1 <0>         0.0357
      9 C8          4.8565   14.9573    1.4146 C.ar      1 <0>        -0.0866
     10 O1          5.1956   16.9054    2.9575 O.3       1 <0>        -0.3079
     11 C9          4.2391   17.5357    3.8298 C.3       1 <0>         0.2130
     12 O2          3.0079   17.4788    3.0854 O.3       1 <0>        -0.3090
     13 N1          3.3561   11.9756    0.0232 N.am      1 <0>        -0.7222
     14 C10         3.7302   10.6994   -0.1952 C.2       1 <0>         0.5392
     15 O3          4.8721   10.4490   -0.5182 O.2       1 <0>        -0.5164
     16 C11         2.7297    9.5834   -0.0381 C.3       1 <0>        -0.1539
     17 S1          3.5302    8.0003   -0.3972 S.3       1 <0>         0.0928
     18 C12         2.1722    6.9064   -0.1443 C.2       1 <0>         0.1550
     19 N2          0.9533    7.2465    0.2078 N.2       1 <0>        -0.2995
     20 N3          0.2124    6.2011    0.3041 N.2       1 <0>        -0.2656
     21 C13         0.9137    5.1260    0.0189 C.2       1 <0>         0.2642
     22 N4          2.1930    5.5452   -0.2720 N.pl3     1 <0>        -0.4164
     23 C14         3.3365    4.7079   -0.6429 C.3       1 <0>         0.0487
     24 C15         3.3758    4.5462   -2.1407 C.2       1 <0>         0.4603
     25 O4          2.5350    5.0761   -2.8278 O.co2     1 <0>        -0.6093
     26 C16         0.4258    3.7375    0.0170 C.2       1 <0>        -0.0779
     27 C17        -0.8658    3.2748    0.0265 C.2       1 <0>        -0.1170
     28 C18        -1.0805    1.9149    0.0166 C.2       1 <0>        -0.1561
     29 C19        -0.0126    1.0758    0.0080 C.2       1 <0>        -0.1790
     30 S2          1.3606    2.2165    0.0010 S.3       1 <0>         0.0911
     31 H2          5.1166   14.2920   -1.7117 H         1 <0>         0.0694
     32 H3          4.6975   12.6351   -2.2089 H         1 <0>         0.0716
     33 H4          3.4103   13.8299   -1.9198 H         1 <0>         0.0618
     34 H5          1.8335   14.0166    0.2480 H         1 <0>         0.1395
     35 H6          1.1373   15.9332    1.6259 H         1 <0>         0.1388
     36 H7          5.8983   14.6789    1.3553 H         1 <0>         0.1397
     37 H8          4.1482   16.9806    4.7635 H         1 <0>         0.0855
     38 H9          4.5216   18.5704    4.0242 H         1 <0>         0.1323
     39 H10         2.4428   12.1759    0.2816 H         1 <0>         0.4033
     40 H11         1.9020    9.7374   -0.7304 H         1 <0>         0.1277
     41 H12         2.3516    9.5757    0.9842 H         1 <0>         0.1256
     42 H13         4.2582    5.1809   -0.3042 H         1 <0>         0.1081
     43 H14         3.2370    3.7288   -0.1743 H         1 <0>         0.1008
     44 H15        -1.6976    3.9637    0.0371 H         1 <0>         0.1429
     45 H16        -2.0858    1.5202    0.0190 H         1 <0>         0.1377
     46 H17         0.0021   -0.0041    0.0020 H         1 <0>         0.1884
     47 O5          4.3450    3.8136   -2.7114 O.co2     1 <0>        -0.7423
@<TRIPOS>BOND
     1    1    2 1
     2    1   31 1
     3    1   32 1
     4    1   33 1
     5    2    3 1
     6    2    4 1
     7    2   13 1
     8    4    9 ar
     9    4    5 ar
    10    5    6 ar
    11    5   34 1
    12    6    7 ar
    13    6   35 1
    14    7   12 1
    15    7    8 ar
    16    8    9 ar
    17    8   10 1
    18    9   36 1
    19   10   11 1
    20   11   12 1
    21   11   37 1
    22   11   38 1
    23   13   14 am
    24   13   39 1
    25   14   15 2
    26   14   16 1
    27   16   17 1
    28   16   40 1
    29   16   41 1
    30   17   18 1
    31   18   22 1
    32   18   19 2
    33   19   20 1
    34   20   21 2
    35   21   22 1
    36   21   26 1
    37   22   23 1
    38   23   24 1
    39   23   42 1
    40   23   43 1
    41   24   25 2
    42   24   47 1
    43   26   30 1
    44   26   27 2
    45   27   28 1
    46   27   44 1
    47   28   29 2
    48   28   45 1
    49   29   30 1
    50   29   46 1
@<TRIPOS>MOLECULE
ZINC19938433
   63    67     0     0     0
SMALL
USER_CHARGES
(5R)-4-(benzofuran-2-carbonyl)-5-(3-ethoxy-4-hydroxy-phenyl)-3-hydroxy-1-(2-morpholinoethyl)-5H-pyrrol-2-one
@<TRIPOS>ATOM
      1 C1         -7.1231    7.5831    3.7820 C.3       1 <0>        -0.1485
      2 C2         -6.1950    6.4158    4.1240 C.3       1 <0>         0.0500
      3 O1         -6.7800    5.1935    3.6704 O.3       1 <0>        -0.3095
      4 C3         -6.1277    4.0425    3.9854 C.ar      1 <0>         0.0850
      5 C4         -4.8961    4.0934    4.6184 C.ar      1 <0>        -0.1369
      6 C5         -4.2341    2.9225    4.9376 C.ar      1 <0>        -0.0737
      7 C6         -4.7955    1.6992    4.6216 C.ar      1 <0>        -0.0947
      8 C7         -6.0265    1.6413    3.9951 C.ar      1 <0>        -0.1838
      9 C8         -6.6953    2.8112    3.6724 C.ar      1 <0>         0.1187
     10 O2         -7.9036    2.7561    3.0508 O.3       1 <0>        -0.5027
     11 C9         -2.8948    2.9797    5.6261 C.3       1 <0>         0.2578
     12 H1         -2.5302    1.9497    5.7535 H         1 <0>         0.0752
     13 C10        -3.0172    3.7085    6.9439 C.2       1 <0>        -0.4727
     14 C11        -2.2059    4.7890    6.8693 C.2       1 <0>         0.2847
     15 C12        -1.5402    4.8064    5.5510 C.2       1 <0>         0.5086
     16 O3         -0.7465    5.6492    5.1818 O.2       1 <0>        -0.5267
     17 N1         -1.9446    3.7532    4.8180 N.am      1 <0>        -0.6065
     18 C13        -1.5088    3.4318    3.4568 C.3       1 <0>         0.1355
     19 C14        -2.4463    4.1010    2.4497 C.3       1 <0>         0.0361
     20 N2         -2.0093    3.7787    1.0848 N.3       1 <0>        -0.5309
     21 C15        -1.7167    2.3442    0.9502 C.3       1 <0>         0.0080
     22 C16        -1.2101    2.0631   -0.4669 C.3       1 <0>         0.0630
     23 O4         -2.1843    2.5090   -1.4142 O.3       1 <0>        -0.3873
     24 C17        -2.4918    3.9020   -1.3115 C.3       1 <0>         0.0643
     25 C18        -3.0124    4.2016    0.0968 C.3       1 <0>         0.0187
     26 O5         -2.0284    5.7054    7.8495 O.3       1 <0>        -0.5995
     27 C19        -3.8542    3.3199    8.0843 C.2       1 <0>         0.4875
     28 O6         -3.9578    4.0620    9.0446 O.2       1 <0>        -0.4673
     29 C20        -4.5672    2.0357    8.0681 C.2       1 <0>         0.0114
     30 C21        -5.4672    1.6273    9.0039 C.2       1 <0>        -0.1697
     31 C22        -5.9169    0.3025    8.5813 C.ar      1 <0>        -0.1330
     32 C23        -6.8189   -0.6311    9.0994 C.ar      1 <0>        -0.0680
     33 C24        -7.0159   -1.8156    8.4480 C.ar      1 <0>        -0.1444
     34 C25        -6.3264   -2.0973    7.2762 C.ar      1 <0>        -0.0989
     35 C26        -5.4332   -1.1899    6.7484 C.ar      1 <0>        -0.1082
     36 C27        -5.2153    0.0218    7.3933 C.ar      1 <0>         0.0586
     37 O7         -4.4249    1.0800    7.1265 O.3       1 <0>        -0.1642
     38 H2         -6.6728    8.5240    4.1312 H         1 <0>         0.0778
     39 H3         -8.0947    7.4360    4.2763 H         1 <0>         0.0645
     40 H4         -7.2690    7.6285    2.6927 H         1 <0>         0.0630
     41 H5         -5.2234    6.5629    3.6297 H         1 <0>         0.0581
     42 H6         -6.0490    6.3704    5.2133 H         1 <0>         0.0647
     43 H7         -4.4535    5.0478    4.8628 H         1 <0>         0.1287
     44 H8         -4.2730    0.7868    4.8683 H         1 <0>         0.1214
     45 H9         -6.4649    0.6844    3.7533 H         1 <0>         0.1259
     46 H10        -8.3512    1.7821    2.8039 H         1 <0>         0.4210
     47 H11        -0.4834    3.7995    3.3037 H         1 <0>         0.0880
     48 H12        -1.5329    2.3417    3.3119 H         1 <0>         0.0770
     49 H13        -3.4717    3.7333    2.6029 H         1 <0>         0.0493
     50 H14        -2.4222    5.1911    2.5946 H         1 <0>         0.0789
     51 H15        -0.9462    2.0570    1.6809 H         1 <0>         0.0920
     52 H16        -2.6326    1.7641    1.1361 H         1 <0>         0.0445
     53 H17        -0.2641    2.5998   -0.6313 H         1 <0>         0.0597
     54 H18        -1.0448    0.9825   -0.5896 H         1 <0>         0.0972
     55 H19        -1.5839    4.4929   -1.5024 H         1 <0>         0.0597
     56 H20        -3.2617    4.1632   -2.0525 H         1 <0>         0.0969
     57 H21        -3.9499    3.6521    0.2678 H         1 <0>         0.0433
     58 H22        -3.1962    5.2812    0.1999 H         1 <0>         0.0851
     59 H23        -5.7861    2.1726    9.8798 H         1 <0>         0.1607
     60 H24        -7.3574   -0.4171   10.0107 H         1 <0>         0.1241
     61 H25        -7.7128   -2.5377    8.8471 H         1 <0>         0.1243
     62 H26        -6.4926   -3.0378    6.7719 H         1 <0>         0.1297
     63 H27        -4.9030   -1.4204    5.8363 H         1 <0>         0.1283
@<TRIPOS>BOND
     1    1    2 1
     2    1   38 1
     3    1   39 1
     4    1   40 1
     5    2    3 1
     6    2   41 1
     7    2   42 1
     8    3    4 1
     9    4    9 ar
    10    4    5 ar
    11    5    6 ar
    12    5   43 1
    13    6    7 ar
    14    6   11 1
    15    7    8 ar
    16    7   44 1
    17    8    9 ar
    18    8   45 1
    19    9   10 1
    20   10   46 1
    21   11   12 1
    22   11   17 1
    23   11   13 1
    24   13   14 2
    25   13   27 1
    26   14   15 1
    27   14   26 1
    28   15   16 2
    29   15   17 am
    30   17   18 1
    31   18   19 1
    32   18   47 1
    33   18   48 1
    34   19   20 1
    35   19   49 1
    36   19   50 1
    37   20   25 1
    38   20   21 1
    39   21   22 1
    40   21   51 1
    41   21   52 1
    42   22   23 1
    43   22   53 1
    44   22   54 1
    45   23   24 1
    46   24   25 1
    47   24   55 1
    48   24   56 1
    49   25   57 1
    50   25   58 1
    51   27   28 2
    52   27   29 1
    53   29   37 1
    54   29   30 2
    55   30   31 1
    56   30   59 1
    57   31   36 ar
    58   31   32 ar
    59   32   33 ar
    60   32   60 1
    61   33   34 ar
    62   33   61 1
    63   34   35 ar
    64   34   62 1
    65   35   36 ar
    66   35   63 1
    67   36   37 1
@<TRIPOS>MOLECULE
ZINC35003010
   63    66     0     0     0
SMALL
USER_CHARGES

@<TRIPOS>ATOM
      1 C1         -5.0471    1.7904    3.3195 C.3       1 <0>        -0.1492
      2 C2         -3.9100    0.7688    3.2543 C.3       1 <0>         0.0759
      3 H1         -2.9495    1.2697    3.1337 H         1 <0>         0.0849
      4 C3         -4.1477   -0.2433    2.1088 C.3       1 <0>        -0.1028
      5 C4         -3.6142   -1.5289    2.7115 C.ar      1 <0>        -0.1924
      6 C5         -3.2718   -2.7344    2.1515 C.ar      1 <0>        -0.0241
      7 C6         -2.7889   -3.7670    2.9626 C.ar      1 <0>        -0.1631
      8 C7         -2.6604   -3.5574    4.3393 C.ar      1 <0>        -0.0298
      9 C8         -3.0095   -2.3475    4.8898 C.ar      1 <0>        -0.1531
     10 C9         -3.4951   -1.3168    4.0825 C.ar      1 <0>         0.1173
     11 O1         -3.9062   -0.0642    4.4258 O.3       1 <0>        -0.3031
     12 C10        -2.4184   -5.0672    2.3701 C.2       1 <0>         0.5088
     13 C11        -1.8400   -6.1187    3.2128 C.2       1 <0>        -0.5067
     14 C12        -0.5012   -6.0787    3.9118 C.3       1 <0>         0.2639
     15 H2         -0.4720   -5.2494    4.6186 H         1 <0>         0.0698
     16 N1         -0.3741   -7.3548    4.6257 N.am      1 <0>        -0.6104
     17 C13        -1.4874   -8.0727    4.3908 C.2       1 <0>         0.5164
     18 O2         -1.7081   -9.1822    4.8340 O.2       1 <0>        -0.5201
     19 C14        -2.4051   -7.3096    3.5191 C.2       1 <0>         0.2677
     20 O3         -3.6166   -7.7352    3.0928 O.3       1 <0>        -0.6524
     21 C15         0.7638   -7.7728    5.4484 C.3       1 <0>         0.1374
     22 C16         0.5363   -7.3311    6.8955 C.3       1 <0>         0.0429
     23 O4         -0.5929   -8.0226    7.4327 O.3       1 <0>        -0.3701
     24 C17        -0.8933   -7.6808    8.7873 C.3       1 <0>         0.0330
     25 C18         0.6073   -5.9380    2.9006 C.ar      1 <0>         0.0026
     26 C19         0.9684   -7.0193    2.1188 C.ar      1 <0>        -0.2000
     27 C20         1.9881   -6.8941    1.1875 C.ar      1 <0>         0.1480
     28 C21         2.6471   -5.6793    1.0405 C.ar      1 <0>         0.0169
     29 C22         2.2807   -4.5945    1.8282 C.ar      1 <0>         0.1458
     30 C23         1.2564   -4.7265    2.7535 C.ar      1 <0>        -0.2268
     31 O5          2.9225   -3.4037    1.6881 O.3       1 <0>        -0.3063
     32 C24         2.4131   -2.2999    2.4392 C.3       1 <0>         0.0261
     33 O6          3.6487   -5.5525    0.1279 O.3       1 <0>        -0.3141
     34 C25         3.2782   -5.1387   -1.1888 C.3       1 <0>         0.0356
     35 O7          2.3432   -7.9587    0.4193 O.3       1 <0>        -0.3064
     36 C26         1.6232   -9.1758    0.6248 C.3       1 <0>         0.0247
     37 O8         -2.5929   -5.2665    1.1823 O.2       1 <0>        -0.4760
     38 H3         -4.8818    2.4650    4.1596 H         1 <0>         0.0669
     39 H4         -5.0740    2.3638    2.3929 H         1 <0>         0.0775
     40 H5         -5.9957    1.2701    3.4525 H         1 <0>         0.0671
     41 H6         -5.2100   -0.3314    1.8809 H         1 <0>         0.0894
     42 H7         -3.5817    0.0345    1.2197 H         1 <0>         0.0892
     43 H8         -3.3747   -2.8854    1.0871 H         1 <0>         0.1309
     44 H9         -2.2861   -4.3487    4.9717 H         1 <0>         0.1429
     45 H10        -2.9077   -2.1929    5.9538 H         1 <0>         0.1280
     46 H11         0.8603   -8.8578    5.4106 H         1 <0>         0.0861
     47 H12         1.6758   -7.3134    5.0673 H         1 <0>         0.0899
     48 H13         1.4205   -7.5628    7.4893 H         1 <0>         0.0535
     49 H14         0.3515   -6.2572    6.9228 H         1 <0>         0.0504
     50 H15        -0.0388   -7.9198    9.4204 H         1 <0>         0.0349
     51 H16        -1.1078   -6.6142    8.8539 H         1 <0>         0.0371
     52 H17        -1.7625   -8.2478    9.1209 H         1 <0>         0.0827
     53 H18         0.4558   -7.9629    2.2336 H         1 <0>         0.1328
     54 H19         0.9681   -3.8828    3.3630 H         1 <0>         0.1320
     55 H20         2.9611   -1.3959    2.1737 H         1 <0>         0.0970
     56 H21         1.3556   -2.1634    2.2128 H         1 <0>         0.0570
     57 H22         2.5339   -2.4984    3.5042 H         1 <0>         0.0556
     58 H23         2.7998   -4.1605   -1.1411 H         1 <0>         0.0415
     59 H24         4.1686   -5.0777   -1.8145 H         1 <0>         0.0867
     60 H25         2.5835   -5.8625   -1.6150 H         1 <0>         0.0432
     61 H26         2.0052   -9.9421   -0.0497 H         1 <0>         0.0992
     62 H27         1.7506   -9.5036    1.6565 H         1 <0>         0.0564
     63 H28         0.5647   -9.0101    0.4243 H         1 <0>         0.0610
@<TRIPOS>BOND
     1    1    2 1
     2    1   38 1
     3    1   39 1
     4    1   40 1
     5    2    3 1
     6    2   11 1
     7    2    4 1
     8    4    5 1
     9    4   41 1
    10    4   42 1
    11    5   10 ar
    12    5    6 ar
    13    6    7 ar
    14    6   43 1
    15    7    8 ar
    16    7   12 1
    17    8    9 ar
    18    8   44 1
    19    9   10 ar
    20    9   45 1
    21   10   11 1
    22   12   13 1
    23   12   37 2
    24   13   19 2
    25   13   14 1
    26   14   16 1
    27   14   25 1
    28   14   15 1
    29   16   21 1
    30   16   17 am
    31   17   18 2
    32   17   19 1
    33   19   20 1
    34   21   22 1
    35   21   46 1
    36   21   47 1
    37   22   23 1
    38   22   48 1
    39   22   49 1
    40   23   24 1
    41   24   50 1
    42   24   51 1
    43   24   52 1
    44   25   30 ar
    45   25   26 ar
    46   26   27 ar
    47   26   53 1
    48   27   28 ar
    49   27   35 1
    50   28   29 ar
    51   28   33 1
    52   29   30 ar
    53   29   31 1
    54   30   54 1
    55   31   32 1
    56   32   55 1
    57   32   56 1
    58   32   57 1
    59   33   34 1
    60   34   58 1
    61   34   59 1
    62   34   60 1
    63   35   36 1
    64   36   61 1
    65   36   62 1
    66   36   63 1
@<TRIPOS>MOLECULE
ZINC20102907
   61    64     0     0     0
SMALL
USER_CHARGES

@<TRIPOS>ATOM
      1 C1          0.8511    0.3834    1.0955 C.3       1 <0>         0.0268
      2 O1          0.0094   -0.0111    0.0102 O.3       1 <0>        -0.3076
      3 C2          0.6115   -0.6119   -1.0515 C.ar      1 <0>         0.1004
      4 C3          1.9813   -0.8215   -1.0441 C.ar      1 <0>        -0.1622
      5 C4          2.5940   -1.4320   -2.1215 C.ar      1 <0>        -0.0842
      6 C5          1.8387   -1.8369   -3.2139 C.ar      1 <0>         0.1670
      7 C6          0.4663   -1.6286   -3.2247 C.ar      1 <0>        -0.1393
      8 C7         -0.1490   -1.0214   -2.1428 C.ar      1 <0>         0.1069
      9 O2         -1.4941   -0.8213   -2.1487 O.3       1 <0>        -0.3062
     10 C8         -2.2112   -1.2670   -3.3016 C.3       1 <0>         0.0256
     11 N1          2.4623   -2.4558   -4.3064 N.am      1 <0>        -0.5033
     12 C9          2.9270   -1.7022   -5.3293 C.2       1 <0>         0.5501
     13 O3          2.8146   -0.4902   -5.3215 O.2       1 <0>        -0.5253
     14 C10         3.5735   -2.4005   -6.4511 C.ar      1 <0>        -0.2224
     15 C11         4.0831   -1.7074   -7.5489 C.ar      1 <0>        -0.0278
     16 C12         4.6764   -2.3923   -8.5700 C.ar      1 <0>        -0.1571
     17 C13         4.7789   -3.7886   -8.5273 C.ar      1 <0>        -0.0903
     18 C14         4.2785   -4.4992   -7.4442 C.ar      1 <0>        -0.0695
     19 C15         3.6692   -3.8094   -6.3923 C.ar      1 <0>         0.2007
     20 N2          3.1679   -4.4608   -5.3166 N.2       1 <0>        -0.5570
     21 C16         2.6010   -3.8159   -4.3271 C.2       1 <0>         0.5333
     22 S1          1.9823   -4.7447   -2.9635 S.3       1 <0>        -0.7416
     23 C17         5.4251   -4.5124   -9.6456 C.2       1 <0>         0.5624
     24 O4          5.5165   -5.7238   -9.6132 O.2       1 <0>        -0.5317
     25 N3          5.9121   -3.8278  -10.6994 N.am      1 <0>        -0.7287
     26 C18         6.5516   -4.5440  -11.8059 C.3       1 <0>         0.1214
     27 C19         7.0126   -3.5401  -12.8645 C.3       1 <0>        -0.1289
     28 C20         7.6804   -4.2880  -14.0201 C.3       1 <0>         0.0585
     29 N4          8.1230   -3.3242  -15.0365 N.3       1 <0>        -0.5372
     30 C21         6.9736   -2.6648  -15.6732 C.3       1 <0>         0.0127
     31 C22         7.4799   -1.6287  -16.6802 C.3       1 <0>         0.0629
     32 O5          8.3304   -2.2728  -17.6325 O.3       1 <0>        -0.3868
     33 C23         9.4606   -2.9248  -17.0468 C.3       1 <0>         0.0633
     34 C24         8.9743   -3.9741  -16.0436 C.3       1 <0>         0.0169
     35 H1          1.3546   -0.4937    1.5022 H         1 <0>         0.0547
     36 H2          1.5945    1.0961    0.7384 H         1 <0>         0.0527
     37 H3          0.2463    0.8485    1.8739 H         1 <0>         0.0962
     38 H4          2.5705   -0.5069   -0.1954 H         1 <0>         0.1376
     39 H5          3.6617   -1.5942   -2.1140 H         1 <0>         0.1241
     40 H6         -0.1215   -1.9430   -4.0744 H         1 <0>         0.1318
     41 H7         -1.8346   -0.7519   -4.1853 H         1 <0>         0.0516
     42 H8         -2.0745   -2.3417   -3.4215 H         1 <0>         0.0573
     43 H9         -3.2716   -1.0473   -3.1772 H         1 <0>         0.0980
     44 H10         4.0082   -0.6308   -7.5912 H         1 <0>         0.1326
     45 H11         5.0701   -1.8526   -9.4186 H         1 <0>         0.1223
     46 H12         4.3597   -5.5757   -7.4147 H         1 <0>         0.1455
     47 H13         5.8392   -2.8609  -10.7252 H         1 <0>         0.4017
     48 H14         7.4124   -5.0977  -11.4311 H         1 <0>         0.0698
     49 H15         5.8382   -5.2383  -12.2499 H         1 <0>         0.0673
     50 H16         6.1518   -2.9863  -13.2394 H         1 <0>         0.0704
     51 H17         7.7260   -2.8458  -12.4206 H         1 <0>         0.0805
     52 H18         8.5412   -4.8418  -13.6453 H         1 <0>         0.0813
     53 H19         6.9670   -4.9823  -14.4641 H         1 <0>         0.0403
     54 H20         6.3676   -3.4089  -16.1902 H         1 <0>         0.0439
     55 H21         6.3711   -2.1687  -14.9123 H         1 <0>         0.0903
     56 H22         6.6321   -1.1777  -17.1958 H         1 <0>         0.0983
     57 H23         8.0410   -0.8553  -16.1556 H         1 <0>         0.0605
     58 H24        10.0452   -3.4112  -17.8276 H         1 <0>         0.0980
     59 H25        10.0793   -2.1891  -16.5329 H         1 <0>         0.0603
     60 H26         9.8323   -4.4337  -15.5530 H         1 <0>         0.0876
     61 H27         8.4003   -4.7391  -16.5665 H         1 <0>         0.0437
@<TRIPOS>BOND
     1    1    2 1
     2    1   35 1
     3    1   36 1
     4    1   37 1
     5    2    3 1
     6    3    8 ar
     7    3    4 ar
     8    4    5 ar
     9    4   38 1
    10    5    6 ar
    11    5   39 1
    12    6    7 ar
    13    6   11 1
    14    7    8 ar
    15    7   40 1
    16    8    9 1
    17    9   10 1
    18   10   41 1
    19   10   42 1
    20   10   43 1
    21   11   21 1
    22   11   12 am
    23   12   13 2
    24   12   14 1
    25   14   19 ar
    26   14   15 ar
    27   15   16 ar
    28   15   44 1
    29   16   17 ar
    30   16   45 1
    31   17   18 ar
    32   17   23 1
    33   18   19 ar
    34   18   46 1
    35   19   20 1
    36   20   21 2
    37   21   22 1
    38   23   24 2
    39   23   25 am
    40   25   26 1
    41   25   47 1
    42   26   27 1
    43   26   48 1
    44   26   49 1
    45   27   28 1
    46   27   50 1
    47   27   51 1
    48   28   29 1
    49   28   52 1
    50   28   53 1
    51   29   34 1
    52   29   30 1
    53   30   31 1
    54   30   54 1
    55   30   55 1
    56   31   32 1
    57   31   56 1
    58   31   57 1
    59   32   33 1
    60   33   34 1
    61   33   58 1
    62   33   59 1
    63   34   60 1
    64   34   61 1
@<TRIPOS>MOLECULE
ZINC09043079
   62    65     0     0     0
SMALL
USER_CHARGES

@<TRIPOS>ATOM
      1 C1          1.0827    1.4975   -0.8383 C.3       1 <0>        -0.0968
      2 C2         -0.2222    1.0225   -1.4237 C.2       1 <0>         0.0003
      3 C3         -0.4239   -0.1497   -2.1859 C.2       1 <0>        -0.2404
      4 C4         -1.7673   -0.1936   -2.5159 C.2       1 <0>         0.1472
      5 N1         -2.3677    0.8862   -1.9910 N.pl3     1 <0>        -0.5245
      6 H1         -3.3103    1.1003   -2.0728 H         1 <0>         0.4205
      7 C5         -1.4336    1.6400   -1.3128 C.2       1 <0>        -0.0795
      8 C6         -1.6966    2.8930   -0.5976 C.2       1 <0>         0.5379
      9 O1         -0.7884    3.4744   -0.0357 O.2       1 <0>        -0.4994
     10 O2         -2.9457    3.4005   -0.5632 O.3       1 <0>        -0.3633
     11 C7         -3.1293    4.6242    0.1516 C.3       1 <0>         0.0381
     12 C8         -2.4413   -1.2703   -3.3268 C.3       1 <0>        -0.1046
     13 C9          0.6029   -1.1396   -2.5595 C.2       1 <0>         0.5439
     14 O3          1.7412   -1.0217   -2.1449 O.2       1 <0>        -0.4762
     15 C10         0.2527   -2.2666   -3.4310 C.2       1 <0>        -0.4984
     16 C11         0.3679   -2.3109   -4.7780 C.2       1 <0>         0.2552
     17 C12        -0.0932   -3.6288   -5.2620 C.2       1 <0>         0.5105
     18 O4         -0.1127   -3.9764   -6.4261 O.2       1 <0>        -0.5306
     19 N2         -0.4879   -4.3871   -4.2231 N.am      1 <0>        -0.6131
     20 C13        -0.2999   -3.6039   -2.9962 C.3       1 <0>         0.2629
     21 H2         -1.2559   -3.4679   -2.4906 H         1 <0>         0.0732
     22 C14         0.6773   -4.2957   -2.0811 C.ar      1 <0>        -0.0416
     23 C15         1.8590   -4.8032   -2.5887 C.ar      1 <0>        -0.0935
     24 C16         2.7563   -5.4380   -1.7505 C.ar      1 <0>        -0.0957
     25 C17         2.4729   -5.5665   -0.4038 C.ar      1 <0>        -0.1610
     26 C18         1.2900   -5.0587    0.1056 C.ar      1 <0>         0.0920
     27 C19         0.3946   -4.4175   -0.7340 C.ar      1 <0>        -0.1485
     28 F1          1.0117   -5.1841    1.4216 F         1 <0>        -0.1464
     29 C20        -1.0083   -5.7543   -4.3020 C.3       1 <0>         0.1427
     30 C21         0.1505   -6.7479   -4.1976 C.3       1 <0>         0.0313
     31 N3         -0.3713   -8.1188   -4.2768 N.3       1 <0>        -0.5330
     32 C22        -1.2012   -8.4351   -3.1052 C.3       1 <0>         0.0134
     33 C23        -1.7715   -9.8478   -3.2570 C.3       1 <0>         0.0646
     34 O5         -0.6959  -10.7753   -3.4249 O.3       1 <0>        -0.3878
     35 C24         0.1324  -10.4974   -4.5572 C.3       1 <0>         0.0650
     36 C25         0.7221   -9.0913   -4.4186 C.3       1 <0>         0.0190
     37 O6          0.8314   -1.3074   -5.5585 O.3       1 <0>        -0.6588
     38 H3          1.2051    1.0815    0.1618 H         1 <0>         0.0702
     39 H4          1.9063    1.1684   -1.4720 H         1 <0>         0.0830
     40 H5          1.0805    2.5860   -0.7813 H         1 <0>         0.0741
     41 H6         -2.8417    4.4830    1.1935 H         1 <0>         0.0600
     42 H7         -2.5094    5.4020   -0.2943 H         1 <0>         0.0604
     43 H8         -4.1769    4.9209    0.1009 H         1 <0>         0.0993
     44 H9         -2.6988   -2.1069   -2.6773 H         1 <0>         0.0812
     45 H10        -3.3481   -0.8698   -3.7801 H         1 <0>         0.0624
     46 H11        -1.7646   -1.6129   -4.1096 H         1 <0>         0.1142
     47 H12         2.0810   -4.7039   -3.6409 H         1 <0>         0.1233
     48 H13         3.6791   -5.8341   -2.1481 H         1 <0>         0.1267
     49 H14         3.1738   -6.0631    0.2508 H         1 <0>         0.1276
     50 H15        -0.5265   -4.0171   -0.3370 H         1 <0>         0.1302
     51 H16        -1.7078   -5.9247   -3.4836 H         1 <0>         0.0724
     52 H17        -1.5215   -5.8934   -5.2535 H         1 <0>         0.0876
     53 H18         0.8500   -6.5776   -5.0160 H         1 <0>         0.0794
     54 H19         0.6637   -6.6089   -3.2461 H         1 <0>         0.0515
     55 H20        -0.5918   -8.3837   -2.2029 H         1 <0>         0.0436
     56 H21        -2.0190   -7.7181   -3.0342 H         1 <0>         0.0879
     57 H22        -2.3408  -10.1083   -2.3647 H         1 <0>         0.0958
     58 H23        -2.4239   -9.8851   -4.1294 H         1 <0>         0.0594
     59 H24         0.9401  -11.2277   -4.6052 H         1 <0>         0.0960
     60 H25        -0.4646  -10.5536   -5.4674 H         1 <0>         0.0596
     61 H26         1.3081   -8.8533   -5.3063 H         1 <0>         0.0864
     62 H27         1.3622   -9.0504   -3.5373 H         1 <0>         0.0429
@<TRIPOS>BOND
     1    1    2 1
     2    1   38 1
     3    1   39 1
     4    1   40 1
     5    2    7 2
     6    2    3 1
     7    3    4 2
     8    3   13 1
     9    4    5 1
    10    4   12 1
    11    5    6 1
    12    5    7 1
    13    7    8 1
    14    8    9 2
    15    8   10 1
    16   10   11 1
    17   11   41 1
    18   11   42 1
    19   11   43 1
    20   12   44 1
    21   12   45 1
    22   12   46 1
    23   13   14 2
    24   13   15 1
    25   15   20 1
    26   15   16 2
    27   16   17 1
    28   16   37 1
    29   17   18 2
    30   17   19 am
    31   19   20 1
    32   19   29 1
    33   20   21 1
    34   20   22 1
    35   22   27 ar
    36   22   23 ar
    37   23   24 ar
    38   23   47 1
    39   24   25 ar
    40   24   48 1
    41   25   26 ar
    42   25   49 1
    43   26   27 ar
    44   26   28 1
    45   27   50 1
    46   29   30 1
    47   29   51 1
    48   29   52 1
    49   30   31 1
    50   30   53 1
    51   30   54 1
    52   31   36 1
    53   31   32 1
    54   32   33 1
    55   32   55 1
    56   32   56 1
    57   33   34 1
    58   33   57 1
    59   33   58 1
    60   34   35 1
    61   35   36 1
    62   35   59 1
    63   35   60 1
    64   36   61 1
    65   36   62 1
@<TRIPOS>MOLECULE
ZINC30861421
   34    35     0     0     0
SMALL
USER_CHARGES
N-[2-[(4,5-dicyano-1H-imidazol-2-yl)amino]-2-oxo-ethyl]cyclopentanecarboxamide
@<TRIPOS>ATOM
      1 C1         -1.9779    2.4205   -0.6705 C.3       1 <0>        -0.1284
      2 C2         -0.7845    1.6092   -1.2159 C.3       1 <0>        -0.1230
      3 C3         -0.0127    1.0858    0.0080 C.3       1 <0>        -0.1083
      4 C4         -0.7629    1.5973    1.2552 C.3       1 <0>        -0.1033
      5 C5         -1.5309    2.8450    0.7505 C.3       1 <0>        -0.1165
      6 C6          0.2132    1.9796    2.3379 C.2       1 <0>         0.5164
      7 O1          1.4053    1.8613    2.1490 O.2       1 <0>        -0.5524
      8 N1         -0.2387    2.4531    3.5160 N.am      1 <0>        -0.7267
      9 C7          0.7101    2.8248    4.5685 C.3       1 <0>         0.1070
     10 C8         -0.0459    3.3204    5.7743 C.2       1 <0>         0.5015
     11 O2         -1.2578    3.3593    5.7562 O.2       1 <0>        -0.4949
     12 N2          0.6249    3.7204    6.8727 N.am      1 <0>        -0.6248
     13 C9         -0.0696    4.1757    7.9802 C.2       1 <0>         0.3530
     14 N3         -1.4219    4.2694    8.0747 N.2       1 <0>        -0.4773
     15 C10        -1.7114    4.7619    9.3302 C.2       1 <0>         0.0260
     16 C11        -0.4875    4.9599    9.9610 C.2       1 <0>         0.0434
     17 N4          0.4759    4.5890    9.0993 N.2       1 <0>        -0.5237
     18 C12        -0.2897    5.4658   11.2860 C.1       1 <0>         0.3239
     19 N5         -0.1327    5.8672   12.3371 N.1       1 <0>        -0.4712
     20 C13        -3.0107    5.0220    9.8732 C.1       1 <0>         0.3271
     21 N6         -4.0414    5.2284   10.3040 N.1       1 <0>        -0.4699
     22 H1         -2.8925    1.8134   -0.6011 H         1 <0>         0.0667
     23 H2         -2.1782    3.3173   -1.2751 H         1 <0>         0.0658
     24 H3         -1.1575    0.7762   -1.8300 H         1 <0>         0.0630
     25 H4         -0.1479    2.2620   -1.8312 H         1 <0>         0.0637
     26 H5          0.0071   -0.0138   -0.0138 H         1 <0>         0.0661
     27 H6          1.0172    1.4716   -0.0154 H         1 <0>         0.0848
     28 H7         -1.4145    0.8368    1.7102 H         1 <0>         0.1015
     29 H8         -0.8922    3.7380    0.6825 H         1 <0>         0.0726
     30 H9         -2.4171    3.0737    1.3607 H         1 <0>         0.0759
     31 H10        -1.3200    2.5605    3.6873 H         1 <0>         0.4364
     32 H11         1.3106    1.9465    4.8477 H         1 <0>         0.0950
     33 H12         1.3740    3.6205    4.1994 H         1 <0>         0.0949
     34 H13         1.7242    3.6851    6.8891 H         1 <0>         0.4357
@<TRIPOS>BOND
     1    1    5 1
     2    1    2 1
     3    1   22 1
     4    1   23 1
     5    2    3 1
     6    2   24 1
     7    2   25 1
     8    3    4 1
     9    3   26 1
    10    3   27 1
    11    4    5 1
    12    4    6 1
    13    4   28 1
    14    5   29 1
    15    5   30 1
    16    6    7 2
    17    6    8 am
    18    8    9 1
    19    8   31 1
    20    9   10 1
    21    9   32 1
    22    9   33 1
    23   10   11 2
    24   10   12 am
    25   12   13 1
    26   12   34 1
    27   13   17 2
    28   13   14 1
    29   14   15 1
    30   15   16 2
    31   15   20 1
    32   16   17 1
    33   16   18 1
    34   18   19 3
    35   20   21 3
@<TRIPOS>MOLECULE
ZINC41032912
   32    34     0     0     0
SMALL
USER_CHARGES

@<TRIPOS>ATOM
      1 C1         -0.0164    1.3584    0.0095 C.ar      1 <0>        -0.2325
      2 C2          1.1617    2.1078    0.0023 C.ar      1 <0>         0.1187
      3 C3          2.3885    1.5381   -0.0130 C.ar      1 <0>        -0.1612
      4 C4          2.5230    0.1276   -0.0223 C.ar      1 <0>         0.1562
      5 C5          1.2976   -0.6951   -0.0145 C.ar      1 <0>         0.0790
      6 C6          0.0021   -0.0041    0.0020 C.ar      1 <0>         0.3602
      7 N1         -1.1857   -0.7278    0.0100 N.pl3     1 <0>        -0.6370
      8 C7         -2.4713   -0.0254    0.0265 C.3       1 <0>         0.0780
      9 C8         -2.6424    0.7610    1.3499 C.3       1 <0>        -0.1237
     10 C9         -3.1052   -0.3352    2.3415 C.3       1 <0>        -0.1234
     11 C10        -4.0409   -1.2317    1.5046 C.3       1 <0>        -0.1233
     12 C11        -3.6379   -1.0348    0.0327 C.3       1 <0>        -0.1102
     13 C12        -2.5806    0.8998   -1.1580 C.2       1 <0>         0.4953
     14 O1         -1.6700    0.9660   -1.9660 O.co2     1 <0>        -0.6670
     15 O2         -3.5797    1.5823   -1.3083 O.co2     1 <0>        -0.6717
     16 N2          1.6507   -1.9561   -0.0253 N.2       1 <0>        -0.2413
     17 O3          3.0669   -2.0134   -0.0400 O.3       1 <0>         0.0540
     18 N3          3.5563   -0.6832   -0.0374 N.2       1 <0>        -0.2562
     19 N4          3.5975    2.3932   -0.0204 N.pl3     1 <0>         0.0651
     20 O4          3.4865    3.5970   -0.0128 O.2       1 <0>        -0.1935
     21 O5          4.6955    1.8875   -0.0340 O.3       1 <0>        -0.1782
     22 H1         -0.9665    1.8717    0.0259 H         1 <0>         0.1678
     23 H2          1.0906    3.1855    0.0088 H         1 <0>         0.1640
     24 H3         -1.1629   -1.6975    0.0045 H         1 <0>         0.4050
     25 H4         -1.6937    1.1936    1.6676 H         1 <0>         0.0725
     26 H5         -3.4043    1.5333    1.2446 H         1 <0>         0.0947
     27 H6         -2.2510   -0.9078    2.7030 H         1 <0>         0.0591
     28 H7         -3.6481    0.1094    3.1755 H         1 <0>         0.0668
     29 H8         -3.9121   -2.2756    1.7905 H         1 <0>         0.0598
     30 H9         -5.0777   -0.9292    1.6515 H         1 <0>         0.0675
     31 H10        -4.4791   -0.6366   -0.5347 H         1 <0>         0.0930
     32 H11        -3.3134   -1.9831   -0.3957 H         1 <0>         0.0623
@<TRIPOS>BOND
     1    1    6 ar
     2    1    2 ar
     3    1   22 1
     4    2    3 ar
     5    2   23 1
     6    3    4 ar
     7    3   19 1
     8    4   18 2
     9    4    5 ar
    10    5    6 ar
    11    5   16 2
    12    6    7 1
    13    7    8 1
    14    7   24 1
    15    8   12 1
    16    8    9 1
    17    8   13 1
    18    9   10 1
    19    9   25 1
    20    9   26 1
    21   10   11 1
    22   10   27 1
    23   10   28 1
    24   11   12 1
    25   11   29 1
    26   11   30 1
    27   12   31 1
    28   12   32 1
    29   13   14 2
    30   13   15 1
    31   16   17 1
    32   17   18 1
    33   19   20 2
    34   19   21 1
@<TRIPOS>MOLECULE
ZINC48869027
   31    31     0     0     0
SMALL
USER_CHARGES

@<TRIPOS>ATOM
      1 C1         -1.5919    0.9671    0.4502 C.3       1 <0>        -0.1239
      2 C2         -0.7501   -0.2601    0.2123 C.ar      1 <0>         0.0323
      3 C3         -0.8770   -0.9745   -0.9793 C.ar      1 <0>        -0.0617
      4 C4         -0.0944   -2.1092   -1.1921 C.ar      1 <0>        -0.0251
      5 C5          0.7998   -2.5185   -0.2240 C.ar      1 <0>        -0.1401
      6 C6          0.9210   -1.8060    0.9553 C.ar      1 <0>        -0.0535
      7 C7          0.1515   -0.6762    1.1699 C.ar      1 <0>        -0.0701
      8 N1          0.2918    0.0841    2.4322 N.pl3     1 <0>         0.0394
      9 O1          0.4983   -0.5004    3.4701 O.2       1 <0>        -0.1768
     10 O2          0.1998    1.2895    2.4252 O.3       1 <0>        -0.1489
     11 C8         -1.8383   -0.5303   -2.0132 C.2       1 <0>         0.5237
     12 O3         -2.0173   -1.2688   -3.1320 O.3       1 <0>        -0.7050
     13 N2         -2.5106    0.5696   -1.8459 N.2       1 <0>        -1.0620
     14 S1         -3.5863    1.0666   -3.0028 S.o2      1 <0>         2.7547
     15 O4         -2.8222    1.3855   -4.1576 O.2       1 <0>        -1.0201
     16 O5         -4.6332    0.1060   -3.0233 O.2       1 <0>        -1.0216
     17 N3         -4.2558    2.4850   -2.4717 N.pl3     1 <0>        -1.0088
     18 C9         -3.6295    3.7642   -2.8146 C.3       1 <0>         0.1052
     19 C10        -5.4745    2.4607   -1.6590 C.3       1 <0>         0.0940
     20 H1         -1.1245    1.8269   -0.0297 H         1 <0>         0.0905
     21 H2         -2.5860    0.8127    0.0308 H         1 <0>         0.1274
     22 H3         -1.6739    1.1492    1.5218 H         1 <0>         0.0483
     23 H4         -0.1884   -2.6666   -2.1124 H         1 <0>         0.1518
     24 H5          1.4061   -3.3973   -0.3874 H         1 <0>         0.1445
     25 H6          1.6220   -2.1305    1.7101 H         1 <0>         0.1418
     26 H7         -4.0443    4.1319   -3.7532 H         1 <0>         0.0453
     27 H8         -3.8242    4.4879   -2.0231 H         1 <0>         0.0630
     28 H9         -2.5539    3.6247   -2.9227 H         1 <0>         0.0685
     29 H10        -5.2066    2.4043   -0.6040 H         1 <0>         0.0495
     30 H11        -6.0499    3.3687   -1.8397 H         1 <0>         0.0625
     31 H12        -6.0738    1.5911   -1.9287 H         1 <0>         0.0751
@<TRIPOS>BOND
     1    1    2 1
     2    1   20 1
     3    1   21 1
     4    1   22 1
     5    2    7 ar
     6    2    3 ar
     7    3    4 ar
     8    3   11 1
     9    4    5 ar
    10    4   23 1
    11    5    6 ar
    12    5   24 1
    13    6    7 ar
    14    6   25 1
    15    7    8 1
    16    8    9 2
    17    8   10 1
    18   11   12 1
    19   11   13 2
    20   13   14 1
    21   14   15 2
    22   14   16 2
    23   14   17 1
    24   17   18 1
    25   17   19 1
    26   18   26 1
    27   18   27 1
    28   18   28 1
    29   19   29 1
    30   19   30 1
    31   19   31 1
@<TRIPOS>MOLECULE
ZINC50222311
   25    26     0     0     0
SMALL
USER_CHARGES

@<TRIPOS>ATOM
      1 C1         -0.0185    1.3828    0.0268 C.ar      1 <0>        -0.0677
      2 C2          1.1653    2.0913    0.0135 C.ar      1 <0>        -0.0487
      3 C3          2.3827    1.4102    0.0066 C.ar      1 <0>        -0.0330
      4 C4          2.3945    0.0138    0.0131 C.ar      1 <0>        -0.0053
      5 C5          1.2022   -0.6833    0.0264 C.ar      1 <0>        -0.0669
      6 C6         -0.0008   -0.0008    0.0332 C.ar      1 <0>        -0.0325
      7 N1         -1.2751   -0.7538    0.0474 N.pl3     1 <0>         0.0366
      8 O1         -2.3281   -0.1599    0.0534 O.2       1 <0>        -0.1544
      9 O2         -1.2628   -1.9627    0.0530 O.3       1 <0>        -0.1611
     10 Cl1         3.9039   -0.8438    0.0039 Cl        1 <0>        -0.0102
     11 C7          3.6565    2.1644   -0.0082 C.2       1 <0>         0.5142
     12 O3          4.7182    1.5669   -0.0142 O.2       1 <0>        -0.5803
     13 N2          3.6417    3.5032   -0.0148 N.2       1 <0>        -0.6608
     14 C8          4.7802    4.1802    0.0777 C.2       1 <0>         0.6563
     15 N3          6.0210    3.6022    0.0716 N.pl3     1 <0>        -0.7441
     16 C9          6.9774    4.7177    0.1938 C.3       1 <0>         0.0216
     17 C10         6.0860    5.9407    0.2639 C.2       1 <0>         0.4567
     18 O4          6.4835    7.2179    0.3808 O.3       1 <0>        -0.6210
     19 N4          4.8562    5.5107    0.1826 N.2       1 <0>        -0.6246
     20 H1         -0.9613    1.9094    0.0367 H         1 <0>         0.1613
     21 H2          1.1495    3.1711    0.0082 H         1 <0>         0.1769
     22 H3          1.2092   -1.7632    0.0311 H         1 <0>         0.1618
     23 H4          7.5671    4.6197    1.1053 H         1 <0>         0.0969
     24 H5          7.6260    4.7649   -0.6809 H         1 <0>         0.0978
     25 H6          6.2278    2.6570    0.0016 H         1 <0>         0.4305
@<TRIPOS>BOND
     1    1    6 ar
     2    1    2 ar
     3    1   20 1
     4    2    3 ar
     5    2   21 1
     6    3    4 ar
     7    3   11 1
     8    4    5 ar
     9    4   10 1
    10    5    6 ar
    11    5   22 1
    12    6    7 1
    13    7    8 2
    14    7    9 1
    15   11   12 2
    16   11   13 1
    17   13   14 2
    18   14   15 1
    19   14   19 1
    20   15   16 1
    21   15   25 1
    22   16   17 1
    23   16   23 1
    24   16   24 1
    25   17   18 1
    26   17   19 2
@<TRIPOS>MOLECULE
ZINC61844806
   24    25     0     0     0
SMALL
USER_CHARGES

@<TRIPOS>ATOM
      1 C1          0.0111    1.4260   -0.0541 C.ar      1 <0>        -0.1351
      2 C2          1.2257    2.0798   -0.1425 C.ar      1 <0>         0.0038
      3 C3          2.4042    1.3591   -0.0941 C.ar      1 <0>        -0.5925
      4 C4          2.3696   -0.0164    0.0423 C.ar      1 <0>         0.0822
      5 C5          1.1566   -0.6721    0.1310 C.ar      1 <0>        -0.1237
      6 C6         -0.0248    0.0489    0.0830 C.ar      1 <0>         0.1425
      7 F1         -1.2114   -0.5910    0.1701 F         1 <0>        -0.1210
      8 N1          3.6323   -0.7868    0.0930 N.pl3     1 <0>         0.0076
      9 O1          3.7071   -1.8616   -0.4555 O.2       1 <0>        -0.1717
     10 O2          4.5890   -0.3412    0.6829 O.3       1 <0>        -0.0540
     11 S1          3.9518    2.1938   -0.2070 S.o2      1 <0>         2.6343
     12 O3          4.7311    1.4780   -1.1555 O.2       1 <0>        -0.9968
     13 O4          3.6579    3.5766   -0.3507 O.2       1 <0>        -1.0029
     14 N2          4.7095    2.0205    1.2553 N.2       1 <0>        -1.0489
     15 C7          5.9599    2.5820    1.4586 C.2       1 <0>         0.5096
     16 N3          6.7022    2.5167    2.6017 N.pl3     1 <0>        -0.6082
     17 C8          7.8515    3.2088    2.3373 C.2       1 <0>         0.0802
     18 N4          7.7687    3.6440    1.1120 N.2       1 <0>        -0.2868
     19 N5          6.6563    3.2721    0.5864 N.2       1 <0>        -0.4306
     20 H1         -0.9095    1.9898   -0.0874 H         1 <0>         0.1600
     21 H2          1.2540    3.1540   -0.2499 H         1 <0>         0.1729
     22 H3          1.1297   -1.7465    0.2372 H         1 <0>         0.1628
     23 H4          8.6752    3.3658    3.0180 H         1 <0>         0.2007
     24 H5          6.4638    2.0721    3.4302 H         1 <0>         0.4154
@<TRIPOS>BOND
     1    1    6 ar
     2    1    2 ar
     3    1   20 1
     4    2    3 ar
     5    2   21 1
     6    3    4 ar
     7    3   11 1
     8    4    5 ar
     9    4    8 1
    10    5    6 ar
    11    5   22 1
    12    6    7 1
    13    8    9 2
    14    8   10 1
    15   11   12 2
    16   11   13 2
    17   11   14 1
    18   14   15 1
    19   15   19 2
    20   15   16 1
    21   16   17 1
    22   16   24 1
    23   17   18 2
    24   17   23 1
    25   18   19 1
@<TRIPOS>MOLECULE
ZINC26271261
   41    43     0     0     0
SMALL
USER_CHARGES
N-(4,5-dicyano-1H-imidazol-2-yl)-3-(2,5,7-trimethylpyrazolo[1,5-a]pyrimidin-6-yl)propanamide
@<TRIPOS>ATOM
      1 C1         -1.3355    4.7879    0.0419 C.3       1 <0>        -0.0759
      2 C2         -0.5472    3.5036    0.0269 C.2       1 <0>         0.1125
      3 C3          0.8360    3.4078    0.0129 C.2       1 <0>        -0.2743
      4 C4          1.1645    2.0586    0.0020 C.2       1 <0>         0.2680
      5 N1          2.3375    1.4113   -0.0123 N.2       1 <0>        -0.4777
      6 C5          2.3815    0.0999   -0.0202 C.2       1 <0>         0.2232
      7 C6          1.1948   -0.6475   -0.0129 C.2       1 <0>        -0.1877
      8 C7          0.0021   -0.0041    0.0020 C.2       1 <0>         0.1988
      9 N2         -0.0164    1.3610    0.0095 N.pl3     1 <0>        -0.3095
     10 N3         -1.0597    2.2935    0.0301 N.2       1 <0>        -0.3186
     11 C8         -1.2867   -0.7851    0.0107 C.3       1 <0>        -0.1269
     12 C9          1.2455   -2.1536   -0.0209 C.3       1 <0>        -0.0535
     13 C10         1.2486   -2.6560   -1.4661 C.3       1 <0>        -0.1332
     14 C11         1.2993   -4.1621   -1.4742 C.2       1 <0>         0.5037
     15 O1          1.3299   -4.7734   -0.4273 O.2       1 <0>        -0.4941
     16 N4          1.3105   -4.8298   -2.6449 N.am      1 <0>        -0.6308
     17 C12         1.3571   -6.2132   -2.6523 C.2       1 <0>         0.3538
     18 N5          1.3998   -7.0030   -1.5474 N.2       1 <0>        -0.4773
     19 C13         1.4353   -8.3119   -1.9809 C.2       1 <0>         0.0249
     20 C14         1.4204   -8.2608   -3.3711 C.2       1 <0>         0.0416
     21 N6          1.3726   -6.9650   -3.7272 N.2       1 <0>        -0.5264
     22 C15         1.4499   -9.3829   -4.2602 C.1       1 <0>         0.3241
     23 N7          1.4733  -10.2731   -4.9655 N.1       1 <0>        -0.4728
     24 C16         1.4833   -9.4872   -1.1642 C.1       1 <0>         0.3272
     25 N8          1.5214  -10.4196   -0.5163 N.1       1 <0>        -0.4710
     26 C17         3.7127   -0.6061   -0.0368 C.3       1 <0>        -0.1203
     27 H1         -0.6435    5.6429    0.0351 H         1 <0>         0.0827
     28 H2         -1.9568    4.8262    0.9488 H         1 <0>         0.0801
     29 H3         -1.9816    4.8319   -0.8473 H         1 <0>         0.0804
     30 H4          1.5322    4.2334    0.0111 H         1 <0>         0.1585
     31 H5         -2.1377   -0.0882    0.0225 H         1 <0>         0.0881
     32 H6         -1.3228   -1.4231    0.9061 H         1 <0>         0.0999
     33 H7         -1.3403   -1.4141   -0.8901 H         1 <0>         0.0986
     34 H8          2.1605   -2.4924    0.4871 H         1 <0>         0.0990
     35 H9          0.3653   -2.5529    0.5043 H         1 <0>         0.0918
     36 H10         0.3336   -2.3172   -1.9740 H         1 <0>         0.0914
     37 H11         2.1288   -2.2566   -1.9913 H         1 <0>         0.0954
     38 H12         1.2826   -4.2754   -3.5946 H         1 <0>         0.4310
     39 H13         3.5507   -1.6941   -0.0415 H         1 <0>         0.0947
     40 H14         4.2880   -0.3249    0.8576 H         1 <0>         0.0897
     41 H15         4.2711   -0.3146   -0.9386 H         1 <0>         0.0910
@<TRIPOS>BOND
     1    1    2 1
     2    1   27 1
     3    1   28 1
     4    1   29 1
     5    2   10 2
     6    2    3 1
     7    3    4 2
     8    3   30 1
     9    4    9 1
    10    4    5 1
    11    5    6 2
    12    6    7 1
    13    6   26 1
    14    7    8 2
    15    7   12 1
    16    8    9 1
    17    8   11 1
    18    9   10 1
    19   11   31 1
    20   11   32 1
    21   11   33 1
    22   12   13 1
    23   12   34 1
    24   12   35 1
    25   13   14 1
    26   13   36 1
    27   13   37 1
    28   14   15 2
    29   14   16 am
    30   16   17 1
    31   16   38 1
    32   17   21 2
    33   17   18 1
    34   18   19 1
    35   19   20 2
    36   19   24 1
    37   20   21 1
    38   20   22 1
    39   22   23 3
    40   24   25 3
    41   26   39 1
    42   26   40 1
    43   26   41 1
@<TRIPOS>MOLECULE
ZINC40124495
   41    44     0     0     0
SMALL
USER_CHARGES

@<TRIPOS>ATOM
      1 C1          0.6815    1.5086   -0.5900 C.ar      1 <0>        -0.1156
      2 C2          1.8918    2.0591   -0.9679 C.ar      1 <0>        -0.0543
      3 C3          2.9524    1.2362   -1.2979 C.ar      1 <0>        -0.0614
      4 C4          2.8028   -0.1371   -1.2496 C.ar      1 <0>        -0.0536
      5 C5          1.5927   -0.6877   -0.8708 C.ar      1 <0>        -0.0925
      6 C6          0.5317    0.1352   -0.5421 C.ar      1 <0>        -0.0201
      7 C7         -0.7879   -0.4650   -0.1302 C.3       1 <0>         0.2553
      8 H1         -1.4011    0.2855    0.3686 H         1 <0>         0.0835
      9 C8         -1.5122   -1.0072   -1.3402 C.2       1 <0>        -0.5098
     10 C9         -1.6753   -2.3349   -1.1353 C.2       1 <0>         0.2697
     11 C10        -1.0855   -2.7009    0.1695 C.2       1 <0>         0.5122
     12 O1         -1.0717   -3.8215    0.6387 O.2       1 <0>        -0.5300
     13 N1         -0.5654   -1.6090    0.7618 N.am      1 <0>        -0.7256
     14 O2         -2.2822   -3.1913   -1.9891 O.3       1 <0>        -0.6414
     15 C11        -1.9542   -0.2422   -2.5105 C.2       1 <0>         0.5041
     16 O3         -1.4804   -0.4785   -3.6063 O.2       1 <0>        -0.4692
     17 C12        -2.9737    0.8144   -2.3595 C.ar      1 <0>        -0.1350
     18 C13        -3.5984    1.0148   -1.1249 C.ar      1 <0>        -0.0601
     19 C14        -4.5496    2.0006   -0.9875 C.ar      1 <0>        -0.1294
     20 C15        -4.8926    2.7999   -2.0726 C.ar      1 <0>         0.0642
     21 C16        -4.2721    2.6070   -3.3051 C.ar      1 <0>         0.0329
     22 C17        -3.3134    1.6215   -3.4487 C.ar      1 <0>        -0.0654
     23 O4         -4.5914    3.3864   -4.3747 O.3       1 <0>        -0.3071
     24 C18        -5.8175    4.1210   -4.2922 C.3       1 <0>         0.0201
     25 C19        -5.8849    4.7895   -2.9124 C.3       1 <0>         0.0205
     26 O5         -5.8377    3.7643   -1.9145 O.3       1 <0>        -0.3072
     27 N2          4.2482    1.8257   -1.7034 N.pl3     1 <0>         0.0404
     28 O6          4.3790    3.0269   -1.7461 O.2       1 <0>        -0.1704
     29 O7          5.1758    1.1060   -1.9921 O.3       1 <0>        -0.1686
     30 H2         -0.1458    2.1515   -0.3278 H         1 <0>         0.1464
     31 H3          2.0088    3.1321   -1.0056 H         1 <0>         0.1494
     32 H4          3.6312   -0.7800   -1.5081 H         1 <0>         0.1495
     33 H5          1.4756   -1.7606   -0.8337 H         1 <0>         0.1433
     34 H6         -0.1221   -1.5826    1.6242 H         1 <0>         0.4092
     35 H7         -3.3352    0.3963   -0.2795 H         1 <0>         0.1452
     36 H8         -5.0316    2.1536   -0.0332 H         1 <0>         0.1365
     37 H9         -2.8302    1.4727   -4.4030 H         1 <0>         0.1417
     38 H10        -5.8427    4.8828   -5.0714 H         1 <0>         0.1197
     39 H11        -6.6617    3.4423   -4.4134 H         1 <0>         0.0761
     40 H12        -5.0365    5.4626   -2.7883 H         1 <0>         0.0769
     41 H13        -6.8155    5.3495   -2.8204 H         1 <0>         0.1197
@<TRIPOS>BOND
     1    1    6 ar
     2    1    2 ar
     3    1   30 1
     4    2    3 ar
     5    2   31 1
     6    3    4 ar
     7    3   27 1
     8    4    5 ar
     9    4   32 1
    10    5    6 ar
    11    5   33 1
    12    6    7 1
    13    7    8 1
    14    7   13 1
    15    7    9 1
    16    9   10 2
    17    9   15 1
    18   10   11 1
    19   10   14 1
    20   11   12 2
    21   11   13 am
    22   13   34 1
    23   15   16 2
    24   15   17 1
    25   17   22 ar
    26   17   18 ar
    27   18   19 ar
    28   18   35 1
    29   19   20 ar
    30   19   36 1
    31   20   26 1
    32   20   21 ar
    33   21   22 ar
    34   21   23 1
    35   22   37 1
    36   23   24 1
    37   24   25 1
    38   24   38 1
    39   24   39 1
    40   25   26 1
    41   25   40 1
    42   25   41 1
    43   27   28 2
    44   27   29 1
@<TRIPOS>MOLECULE
ZINC55597816
   41    43     0     0     0
SMALL
USER_CHARGES

@<TRIPOS>ATOM
      1 C1         -0.9236    1.4381   -0.1651 C.3       1 <0>        -0.1263
      2 C2         -0.5647   -0.0249   -0.1221 C.ar      1 <0>         0.0069
      3 C3         -0.5437   -0.7661   -1.2891 C.ar      1 <0>        -0.1416
      4 C4         -0.2146   -2.1079   -1.2497 C.ar      1 <0>         0.0246
      5 C5          0.0942   -2.7088   -0.0434 C.ar      1 <0>        -0.6165
      6 C6          0.0741   -1.9677    1.1230 C.ar      1 <0>         0.0415
      7 C7         -0.2510   -0.6244    1.0830 C.ar      1 <0>        -0.0714
      8 N1         -0.2675    0.1705    2.3315 N.pl3     1 <0>         0.0362
      9 O1          0.1131    1.3180    2.3226 O.2       1 <0>        -0.1541
     10 O2         -0.6615   -0.3277    3.3602 O.3       1 <0>        -0.1563
     11 S1          0.5127   -4.4197    0.0070 S.o2      1 <0>         2.5988
     12 O3          0.2286   -4.8686    1.3249 O.2       1 <0>        -1.0196
     13 O4         -0.0722   -5.0149   -1.1432 O.2       1 <0>        -1.0208
     14 N2          2.1537   -4.5282   -0.1866 N.2       1 <0>        -1.0808
     15 C8          2.7755   -5.7789   -0.1882 C.ar      1 <0>         0.2984
     16 C9          2.0170   -6.9332   -0.0333 C.ar      1 <0>        -0.2816
     17 C10         2.6314   -8.1703   -0.0353 C.ar      1 <0>        -0.0430
     18 C11         4.0012   -8.2646   -0.1909 C.ar      1 <0>        -0.2549
     19 C12         4.7650   -7.1149   -0.3457 C.ar      1 <0>         0.2113
     20 C13         4.1506   -5.8708   -0.3503 C.ar      1 <0>        -0.2071
     21 N3          6.1523   -7.2114   -0.5027 N.am      1 <0>        -0.5644
     22 C14         6.9082   -8.4645   -0.6475 C.3       1 <0>         0.0882
     23 C15         8.3710   -7.9994   -0.7850 C.3       1 <0>         0.0941
     24 N4          8.2839   -6.5338   -0.7030 N.am      1 <0>        -0.7451
     25 C16         7.0018   -6.1769   -0.5506 C.2       1 <0>         0.6930
     26 O5          6.6422   -5.0190   -0.4600 O.2       1 <0>        -0.5574
     27 H1         -0.0125    2.0344   -0.2152 H         1 <0>         0.0973
     28 H2         -1.5363    1.6362   -1.0445 H         1 <0>         0.0802
     29 H3         -1.4814    1.7019    0.7334 H         1 <0>         0.0739
     30 H4         -0.7849   -0.2967   -2.2313 H         1 <0>         0.1514
     31 H5         -0.1989   -2.6871   -2.1611 H         1 <0>         0.1570
     32 H6          0.3149   -2.4372    2.0653 H         1 <0>         0.1608
     33 H7          0.9463   -6.8627    0.0892 H         1 <0>         0.0977
     34 H8          2.0399   -9.0659    0.0852 H         1 <0>         0.1084
     35 H9          4.4785   -9.2334   -0.1917 H         1 <0>         0.1051
     36 H10         4.7418   -4.9757   -0.4754 H         1 <0>         0.1505
     37 H11         6.7869   -9.0890    0.2375 H         1 <0>         0.0869
     38 H12         6.5917   -9.0010   -1.5419 H         1 <0>         0.0869
     39 H13         8.9759   -8.3931    0.0318 H         1 <0>         0.0817
     40 H14         8.7807   -8.3051   -1.7477 H         1 <0>         0.0815
     41 H15         9.0351   -5.9223   -0.7552 H         1 <0>         0.4284
@<TRIPOS>BOND
     1    1    2 1
     2    1   27 1
     3    1   28 1
     4    1   29 1
     5    2    7 ar
     6    2    3 ar
     7    3    4 ar
     8    3   30 1
     9    4    5 ar
    10    4   31 1
    11    5    6 ar
    12    5   11 1
    13    6    7 ar
    14    6   32 1
    15    7    8 1
    16    8    9 2
    17    8   10 1
    18   11   12 2
    19   11   13 2
    20   11   14 1
    21   14   15 1
    22   15   20 ar
    23   15   16 ar
    24   16   17 ar
    25   16   33 1
    26   17   18 ar
    27   17   34 1
    28   18   19 ar
    29   18   35 1
    30   19   20 ar
    31   19   21 1
    32   20   36 1
    33   21   25 am
    34   21   22 1
    35   22   23 1
    36   22   37 1
    37   22   38 1
    38   23   24 1
    39   23   39 1
    40   23   40 1
    41   24   25 am
    42   24   41 1
    43   25   26 2
@<TRIPOS>MOLECULE
ZINC39781273
   45    47     0     0     0
SMALL
USER_CHARGES

@<TRIPOS>ATOM
      1 C1         -0.0187    1.5258    0.0104 C.3       1 <0>        -0.1486
      2 C2          0.0021   -0.0041    0.0020 C.3       1 <0>         0.1061
      3 H1         -1.0168   -0.3909    0.0222 H         1 <0>         0.1197
      4 C3          0.7176   -0.5024   -1.2229 C.ar      1 <0>        -0.0560
      5 C4          0.5285   -0.3878   -2.5814 C.ar      1 <0>        -0.0561
      6 N1          1.3768   -0.9728   -3.4100 N.ar      1 <0>        -0.1569
      7 N2          2.3851   -1.6539   -3.0037 N.ar      1 <0>        -0.3207
      8 C5          2.6577   -1.8259   -1.7163 C.ar      1 <0>         0.4123
      9 O1          3.7338   -2.5528   -1.3326 O.3       1 <0>        -0.6246
     10 C6          1.8144   -1.2430   -0.7595 C.ar      1 <0>        -0.2601
     11 C7          1.7875   -1.2102    0.7063 C.2       1 <0>         0.4953
     12 O2          0.7334   -0.4904    1.1325 O.3       1 <0>        -0.2863
     13 N3          2.6692   -1.8014    1.4937 N.2       1 <0>        -0.5634
     14 C8          2.5489   -1.7066    2.8205 C.2       1 <0>         0.4941
     15 O3          1.6291   -1.0769    3.3035 O.2       1 <0>        -0.5193
     16 C9          3.5541   -2.3806    3.7184 C.3       1 <0>        -0.1104
     17 S1          3.1209   -2.0692    5.4521 S.3       1 <0>         0.0303
     18 C10         4.3731   -2.9109    6.3622 C.2       1 <0>         0.2631
     19 N4          5.3422   -3.5678    5.8203 N.2       1 <0>        -0.3071
     20 N5          6.1838   -4.1313    6.7871 N.pl3     1 <0>        -0.6672
     21 C11         5.6229   -3.7462    8.0937 C.3       1 <0>         0.3683
     22 H2          6.3384   -3.1453    8.6550 H         1 <0>         0.0630
     23 N6          4.4389   -2.9419    7.7473 N.pl3     1 <0>        -0.6284
     24 C12         3.5105   -2.3019    8.6826 C.3       1 <0>         0.1781
     25 C13         2.3941   -3.2580    9.0154 C.2       1 <0>        -0.1677
     26 C14         2.1363   -3.5543   10.2652 C.2       1 <0>        -0.1834
     27 C15         5.2228   -4.9878    8.8932 C.3       1 <0>        -0.1756
     28 C16        -0.6375    0.3998   -3.1210 C.3       1 <0>        -0.0740
     29 H3          1.0039    1.9031    0.0027 H         1 <0>         0.0651
     30 H4         -0.5459    1.8868   -0.8726 H         1 <0>         0.0835
     31 H5         -0.5289    1.8773    0.9072 H         1 <0>         0.0736
     32 H6          3.5477   -3.4541    3.5294 H         1 <0>         0.1237
     33 H7          4.5479   -1.9818    3.5149 H         1 <0>         0.1241
     34 H8          6.9762   -4.6678    6.6285 H         1 <0>         0.4406
     35 H9          4.0423   -2.0325    9.5952 H         1 <0>         0.0825
     36 H10         3.0955   -1.4038    8.2253 H         1 <0>         0.0920
     37 H11         1.8067   -3.6988    8.2236 H         1 <0>         0.1137
     38 H12         1.3363   -4.2395   10.5037 H         1 <0>         0.0985
     39 H13         2.7238   -3.1135   11.0569 H         1 <0>         0.0958
     40 H14         6.1049   -5.6009    9.0779 H         1 <0>         0.0637
     41 H15         4.7869   -4.6826    9.8445 H         1 <0>         0.0641
     42 H16         4.4915   -5.5646    8.3269 H         1 <0>         0.0611
     43 H17        -0.3407    1.4393   -3.2598 H         1 <0>         0.0632
     44 H18        -0.9481   -0.0203   -4.0776 H         1 <0>         0.0704
     45 H19        -1.4671    0.3499   -2.4157 H         1 <0>         0.0601
@<TRIPOS>BOND
     1    1    2 1
     2    1   29 1
     3    1   30 1
     4    1   31 1
     5    2    3 1
     6    2   12 1
     7    2    4 1
     8    4   10 ar
     9    4    5 ar
    10    5    6 ar
    11    5   28 1
    12    6    7 ar
    13    7    8 ar
    14    8    9 1
    15    8   10 ar
    16   10   11 1
    17   11   12 1
    18   11   13 2
    19   13   14 1
    20   14   15 2
    21   14   16 1
    22   16   17 1
    23   16   32 1
    24   16   33 1
    25   17   18 1
    26   18   23 1
    27   18   19 2
    28   19   20 1
    29   20   21 1
    30   20   34 1
    31   21   22 1
    32   21   23 1
    33   21   27 1
    34   23   24 1
    35   24   25 1
    36   24   35 1
    37   24   36 1
    38   25   26 2
    39   25   37 1
    40   26   38 1
    41   26   39 1
    42   27   40 1
    43   27   41 1
    44   27   42 1
    45   28   43 1
    46   28   44 1
    47   28   45 1
@<TRIPOS>MOLECULE
ZINC65508522
   40    42     0     0     0
SMALL
USER_CHARGES

@<TRIPOS>ATOM
      1 C1          0.1550    1.1262   -0.0063 C.2       1 <0>        -0.0848
      2 C2         -1.0314    1.7825    0.1020 C.2       1 <0>        -0.2039
      3 C3         -2.2312    1.0424    0.1041 C.2       1 <0>         0.4854
      4 O1         -3.3059    1.6137    0.2000 O.2       1 <0>        -0.5991
      5 N1         -2.1832   -0.3009   -0.0011 N.am      1 <0>        -0.3983
      6 N2         -0.9508   -0.9551   -0.1115 N.2       1 <0>        -0.3855
      7 C4          0.1693   -0.2768   -0.1144 C.2       1 <0>         0.3586
      8 O2          1.3536   -0.9319   -0.2282 O.3       1 <0>        -0.7172
      9 C5         -3.4249   -1.0783    0.0007 C.3       1 <0>         0.1326
     10 C6         -3.9280   -1.2389   -1.4353 C.3       1 <0>         0.1235
     11 N3         -5.1698   -2.0163   -1.4335 N.pl3     1 <0>        -0.6839
     12 C7         -5.8158   -2.2924   -2.6274 C.ar      1 <0>         0.5764
     13 N4         -5.2932   -1.8500   -3.7610 N.ar      1 <0>        -0.5414
     14 C8         -5.8816   -2.0937   -4.9236 C.ar      1 <0>         0.1780
     15 C9         -7.0573   -2.8204   -4.9467 C.ar      1 <0>        -0.0774
     16 C10        -7.5841   -3.2737   -3.7338 C.ar      1 <0>         0.4461
     17 N5         -6.9373   -2.9966   -2.6064 N.ar      1 <0>        -0.5625
     18 N6         -8.7611   -4.0064   -3.7079 N.pl3     1 <0>        -0.6623
     19 C11        -8.7416   -5.4747   -3.8037 C.3       1 <0>         0.1146
     20 C12        -9.5880   -6.0451   -2.6599 C.3       1 <0>         0.0465
     21 O3        -10.8761   -5.4251   -2.6730 O.3       1 <0>        -0.3809
     22 C13       -10.8483   -4.0132   -2.4501 C.3       1 <0>         0.0465
     23 C14       -10.0661   -3.3391   -3.5775 C.3       1 <0>         0.1147
     24 F1         -7.6829   -3.0861   -6.1143 F         1 <0>        -0.1255
     25 H1          1.0822    1.6800   -0.0137 H         1 <0>         0.1246
     26 H2         -1.0540    2.8590    0.1859 H         1 <0>         0.1380
     27 H3         -3.2374   -2.0615    0.4321 H         1 <0>         0.0890
     28 H4         -4.1779   -0.5589    0.5935 H         1 <0>         0.0886
     29 H5         -4.1155   -0.2557   -1.8667 H         1 <0>         0.0730
     30 H6         -3.1751   -1.7583   -2.0281 H         1 <0>         0.0793
     31 H7         -5.5396   -2.3377   -0.5964 H         1 <0>         0.4150
     32 H8         -5.4475   -1.7281   -5.8425 H         1 <0>         0.1789
     33 H9         -9.1605   -5.7857   -4.7607 H         1 <0>         0.0690
     34 H10        -7.7165   -5.8347   -3.7167 H         1 <0>         0.0791
     35 H11        -9.7006   -7.1212   -2.7919 H         1 <0>         0.1017
     36 H12        -9.0967   -5.8438   -1.7080 H         1 <0>         0.0575
     37 H13       -11.8676   -3.6275   -2.4312 H         1 <0>         0.1018
     38 H14       -10.3615   -3.8045   -1.4974 H         1 <0>         0.0570
     39 H15        -9.9176   -2.2855   -3.3408 H         1 <0>         0.0787
     40 H16       -10.6206   -3.4314   -4.5114 H         1 <0>         0.0686
@<TRIPOS>BOND
     1    1    7 1
     2    1   25 1
     3    1    2 2
     4    2   26 1
     5    2    3 1
     6    3    4 2
     7    3    5 am
     8    5    9 1
     9    5    6 1
    10    6    7 2
    11    7    8 1
    12    9   10 1
    13    9   27 1
    14    9   28 1
    15   10   11 1
    16   10   29 1
    17   10   30 1
    18   11   12 1
    19   11   31 1
    20   12   17 ar
    21   12   13 ar
    22   13   14 ar
    23   14   15 ar
    24   14   32 1
    25   15   16 ar
    26   15   24 1
    27   16   17 ar
    28   16   18 1
    29   18   23 1
    30   18   19 1
    31   19   20 1
    32   19   33 1
    33   19   34 1
    34   20   21 1
    35   20   35 1
    36   20   36 1
    37   21   22 1
    38   22   23 1
    39   22   37 1
    40   22   38 1
    41   23   39 1
    42   23   40 1
@<TRIPOS>MOLECULE
ZINC20593384
   29    30     0     0     0
SMALL
USER_CHARGES
5-[[(3R)-1,1-dioxothiolan-3-yl]sulfamoyl]furan-2-carboxylic acid
@<TRIPOS>ATOM
      1 C1         -5.4166    5.6226    1.9851 C.2       1 <0>        -0.2143
      2 C2         -4.9620    5.7164    0.6610 C.2       1 <0>        -0.0863
      3 C3         -4.9389    4.4618    0.1584 C.2       1 <0>        -0.6249
      4 O1         -5.3461    3.6095    1.1076 O.3       1 <0>        -0.0959
      5 C4         -5.6424    4.2974    2.2300 C.2       1 <0>         0.0428
      6 C5         -6.1214    3.7242    3.4898 C.2       1 <0>         0.5186
      7 O2         -6.3554    4.4493    4.4378 O.co2     1 <0>        -0.5933
      8 O3         -6.3030    2.3919    3.5987 O.co2     1 <0>        -0.7186
      9 S1         -4.4468    4.0198   -1.4748 S.o2      1 <0>         2.7258
     10 O4         -4.6363    5.1736   -2.2823 O.2       1 <0>        -0.9431
     11 O5         -5.0707    2.7764   -1.7644 O.2       1 <0>        -0.9383
     12 N1         -2.8164    3.7332   -1.4341 N.pl3     1 <0>        -1.1074
     13 C6         -2.2890    2.6117   -0.6528 C.3       1 <0>         0.1455
     14 H1         -3.0973    1.8704   -0.5682 H         1 <0>         0.1225
     15 C7         -1.8757    3.1121    0.7412 C.3       1 <0>        -0.1672
     16 C8         -1.0391    1.9946    1.4299 C.3       1 <0>        -0.5740
     17 S2         -0.0172    1.4168    0.0098 S.o2      1 <0>         2.3866
     18 O6          0.0021   -0.0041    0.0020 O.2       1 <0>        -0.9342
     19 O7          1.2102    2.1328    0.0020 O.2       1 <0>        -0.9358
     20 C9         -1.0641    2.0086   -1.3817 C.3       1 <0>        -0.5875
     21 H2         -5.5569    6.4392    2.6779 H         1 <0>         0.1611
     22 H3         -4.6845    6.6211    0.1406 H         1 <0>         0.1611
     23 H4         -2.1287    4.4800   -1.8576 H         1 <0>         0.4443
     24 H5         -1.2734    4.0268    0.6387 H         1 <0>         0.0988
     25 H6         -2.7760    3.3305    1.3342 H         1 <0>         0.1100
     26 H7         -0.4507    2.4303    2.2509 H         1 <0>         0.1489
     27 H8         -1.7150    1.2252    1.8314 H         1 <0>         0.1507
     28 H9         -1.3951    1.1932   -2.0417 H         1 <0>         0.1536
     29 H10        -0.5732    2.7893   -1.9813 H         1 <0>         0.1507
@<TRIPOS>BOND
     1    1    5 2
     2    1    2 1
     3    1   21 1
     4    2    3 2
     5    2   22 1
     6    3    4 1
     7    3    9 1
     8    4    5 1
     9    5    6 1
    10    6    7 2
    11    6    8 1
    12    9   10 2
    13    9   11 2
    14    9   12 1
    15   12   13 1
    16   12   23 1
    17   13   14 1
    18   13   20 1
    19   13   15 1
    20   15   16 1
    21   15   24 1
    22   15   25 1
    23   16   17 1
    24   16   26 1
    25   16   27 1
    26   17   18 2
    27   17   19 2
    28   17   20 1
    29   20   28 1
    30   20   29 1
@<TRIPOS>MOLECULE
ZINC37791414
   29    31     0     0     0
SMALL
USER_CHARGES

@<TRIPOS>ATOM
      1 C1         -0.0168    1.3848    0.0097 C.ar      1 <0>        -0.1690
      2 C2          1.1691    2.0922    0.0021 C.ar      1 <0>        -0.0354
      3 C3          2.3809    1.4162   -0.0135 C.ar      1 <0>        -0.0153
      4 C4          2.4013    0.0255   -0.0211 C.ar      1 <0>         0.1523
      5 C5          1.2144   -0.6823   -0.0131 C.ar      1 <0>        -0.2811
      6 C6          0.0021   -0.0041    0.0020 C.ar      1 <0>         0.3123
      7 N1         -1.1988   -0.7193    0.0096 N.2       1 <0>        -1.0781
      8 S1         -1.1763   -2.3751    0.0005 S.o2      1 <0>         2.6391
      9 O1         -0.6319   -2.7670   -1.2522 O.2       1 <0>        -1.0242
     10 O2         -0.6083   -2.7804    1.2383 O.2       1 <0>        -1.0299
     11 C7         -2.8523   -2.9189    0.0135 C.2       1 <0>        -0.7566
     12 C8         -3.6008   -3.1653    1.1135 C.2       1 <0>         0.1705
     13 N2         -4.8229   -3.5604    0.6994 N.pl3     1 <0>        -0.4745
     14 H1         -5.5680   -3.8037    1.2708 H         1 <0>         0.4382
     15 N3         -4.8255   -3.5567   -0.7014 N.2       1 <0>        -0.3051
     16 C9         -3.6459   -3.1663   -1.1113 C.2       1 <0>         0.1344
     17 F1          3.5808   -0.6330   -0.0367 F         1 <0>        -0.1439
     18 N4          3.5861    2.1360   -0.0221 N.pl3     1 <0>        -0.2891
     19 C10         4.8317    1.6247   -0.0426 C.2       1 <0>         0.2332
     20 N5          5.6793    2.6220   -0.0446 N.2       1 <0>        -0.5535
     21 C11         5.0173    3.7780   -0.0257 C.2       1 <0>         0.1832
     22 N6          3.7327    3.5327   -0.0170 N.2       1 <0>        -0.3237
     23 H2         -0.9594    1.9117    0.0260 H         1 <0>         0.1325
     24 H3          1.1535    3.1720    0.0080 H         1 <0>         0.1338
     25 H4          1.2292   -1.7622   -0.0194 H         1 <0>         0.1234
     26 H5         -3.2780   -3.0639    2.1392 H         1 <0>         0.1915
     27 H6         -3.3373   -3.0570   -2.1405 H         1 <0>         0.1952
     28 H7          5.0867    0.5753   -0.0548 H         1 <0>         0.2249
     29 H8          5.4686    4.7593   -0.0223 H         1 <0>         0.2149
@<TRIPOS>BOND
     1    1    6 ar
     2    1    2 ar
     3    1   23 1
     4    2    3 ar
     5    2   24 1
     6    3    4 ar
     7    3   18 1
     8    4    5 ar
     9    4   17 1
    10    5    6 ar
    11    5   25 1
    12    6    7 1
    13    7    8 1
    14    8    9 2
    15    8   10 2
    16    8   11 1
    17   11   16 1
    18   11   12 2
    19   12   13 1
    20   12   26 1
    21   13   14 1
    22   13   15 1
    23   15   16 2
    24   16   27 1
    25   18   22 1
    26   18   19 1
    27   19   20 2
    28   19   28 1
    29   20   21 1
    30   21   22 2
    31   21   29 1
@<TRIPOS>MOLECULE
ZINC43428187
   37    38     0     0     0
SMALL
USER_CHARGES

@<TRIPOS>ATOM
      1 C1         -0.0188    1.5339    0.0105 C.3       1 <0>        -0.1249
      2 C2          1.4571    1.9739   -0.0013 C.3       1 <0>        -0.1392
      3 C3          2.2087    0.8366   -0.7237 C.3       1 <0>         0.1401
      4 H1          3.1904    0.7137   -0.2661 H         1 <0>         0.0824
      5 C4          1.3916   -0.4259   -0.4923 C.3       1 <0>         0.0884
      6 H2          1.8728   -1.0065    0.2947 H         1 <0>         0.1120
      7 C5          0.0021   -0.0041    0.0020 C.3       1 <0>        -0.1528
      8 O1          1.2746   -1.2440   -1.6432 O.3       1 <0>        -0.3634
      9 C6          0.8281   -0.5489   -2.8135 C.3       1 <0>         0.0487
     10 C7          1.9624    0.3859   -3.2470 C.3       1 <0>         0.0694
     11 N1          2.3775    1.1822   -2.1197 N.am      1 <0>        -0.6071
     12 C8          2.9593    2.3644   -2.4030 C.2       1 <0>         0.6893
     13 O2          3.3201    3.0956   -1.5017 O.2       1 <0>        -0.5177
     14 N2          3.1410    2.7358   -3.6858 N.am      1 <0>        -0.6931
     15 C9          3.7228    3.9181   -3.9691 C.2       1 <0>         0.5100
     16 O3          4.0827    4.6475   -3.0701 O.2       1 <0>        -0.4304
     17 C10         3.9260    4.3334   -5.4034 C.3       1 <0>         0.0408
     18 O4          4.5569    5.6150   -5.4435 O.3       1 <0>        -0.3337
     19 C11         4.7964    6.1039   -6.7647 C.3       1 <0>        -0.0038
     20 C12         5.4612    7.4541   -6.6878 C.2       1 <0>         0.4977
     21 O5          5.7071    7.9516   -5.6023 O.co2     1 <0>        -0.6678
     22 O6          5.7531    8.0490   -7.7113 O.co2     1 <0>        -0.6958
     23 H3         -0.5127    1.8983    0.9113 H         1 <0>         0.0701
     24 H4         -0.5297    1.9079   -0.8767 H         1 <0>         0.0611
     25 H5          1.5689    2.9095   -0.5493 H         1 <0>         0.0955
     26 H6          1.8273    2.0847    1.0180 H         1 <0>         0.0790
     27 H7         -0.1665   -0.3846    1.0094 H         1 <0>         0.0774
     28 H8         -0.7648   -0.3835   -0.6733 H         1 <0>         0.0748
     29 H9          0.6109   -1.2622   -3.6085 H         1 <0>         0.1119
     30 H10        -0.0641    0.0329   -2.5818 H         1 <0>         0.0654
     31 H11         2.8065   -0.2065   -3.6001 H         1 <0>         0.0766
     32 H12         1.6122    1.0338   -4.0505 H         1 <0>         0.0828
     33 H13         2.8531    2.1523   -4.4051 H         1 <0>         0.4064
     34 H14         4.5573    3.6017   -5.9076 H         1 <0>         0.0769
     35 H15         2.9604    4.3879   -5.9062 H         1 <0>         0.0765
     36 H16         5.4458    5.4089   -7.2971 H         1 <0>         0.0483
     37 H17         3.8488    6.1951   -7.2957 H         1 <0>         0.0481
@<TRIPOS>BOND
     1    1    7 1
     2    1    2 1
     3    1   23 1
     4    1   24 1
     5    2    3 1
     6    2   25 1
     7    2   26 1
     8    3    4 1
     9    3   11 1
    10    3    5 1
    11    5    6 1
    12    5    7 1
    13    5    8 1
    14    7   27 1
    15    7   28 1
    16    8    9 1
    17    9   10 1
    18    9   29 1
    19    9   30 1
    20   10   11 1
    21   10   31 1
    22   10   32 1
    23   11   12 am
    24   12   13 2
    25   12   14 am
    26   14   15 am
    27   14   33 1
    28   15   16 2
    29   15   17 1
    30   17   18 1
    31   17   34 1
    32   17   35 1
    33   18   19 1
    34   19   20 1
    35   19   36 1
    36   19   37 1
    37   20   21 2
    38   20   22 1
@<TRIPOS>MOLECULE
ZINC50534971
   35    37     0     0     0
SMALL
USER_CHARGES

@<TRIPOS>ATOM
      1 C1         -0.0127    1.0858    0.0080 C.3       1 <0>        -0.0730
      2 C2         -0.7416    1.5850   -1.2129 C.2       1 <0>         0.2712
      3 N1         -2.0239    1.8237   -1.2945 N.2       1 <0>        -0.5385
      4 C3         -2.3272    2.2554   -2.5262 C.2       1 <0>         0.3119
      5 N2         -1.2249    2.2938   -3.2426 N.2       1 <0>        -0.3332
      6 H1          0.7552    1.7884   -2.6373 H         1 <0>         0.4332
      7 N3         -0.1829    1.8668   -2.4035 N.pl3     1 <0>        -0.4962
      8 C4         -3.6819    2.6279   -3.0029 C.ar      1 <0>        -0.1478
      9 C5         -4.7725    2.5475   -2.1385 C.ar      1 <0>        -0.0275
     10 C6         -6.0304    2.8946   -2.5833 C.ar      1 <0>        -0.1914
     11 C7         -6.2116    3.3240   -3.8930 C.ar      1 <0>         0.3020
     12 C8         -5.1253    3.4045   -4.7567 C.ar      1 <0>        -0.2723
     13 C9         -3.8648    3.0643   -4.3141 C.ar      1 <0>        -0.0192
     14 N4         -7.4860    3.6745   -4.3414 N.2       1 <0>        -1.0871
     15 S1         -7.7031    4.1862   -5.9013 S.o2      1 <0>         2.6369
     16 O1         -7.0200    5.4265   -6.0207 O.2       1 <0>        -1.0353
     17 O2         -7.4147    3.0741   -6.7375 O.2       1 <0>        -1.0295
     18 C10        -9.4187    4.5349   -6.1011 C.2       1 <0>        -0.7527
     19 C11       -10.4001    3.6280   -6.5141 C.2       1 <0>         0.1314
     20 N5        -11.5490    4.2534   -6.5416 N.2       1 <0>        -0.3088
     21 N6        -11.3346    5.5802   -6.1464 N.pl3     1 <0>        -0.3776
     22 C12       -10.0205    5.7259   -5.8765 C.2       1 <0>         0.1628
     23 C13       -12.3574    6.6236   -6.0394 C.3       1 <0>         0.0977
     24 H2          0.0021   -0.0041    0.0020 H         1 <0>         0.0875
     25 H3          1.0099    1.4631    0.0003 H         1 <0>         0.0777
     26 H4         -0.5229    1.4373    0.9048 H         1 <0>         0.0952
     27 H5         -4.6322    2.2132   -1.1212 H         1 <0>         0.1176
     28 H6         -6.8756    2.8324   -1.9139 H         1 <0>         0.1174
     29 H7         -5.2683    3.7380   -5.7739 H         1 <0>         0.1023
     30 H8         -3.0204    3.1315   -4.9840 H         1 <0>         0.1101
     31 H9        -10.2377    2.5906   -6.7667 H         1 <0>         0.1942
     32 H10        -9.5355    6.6316   -5.5435 H         1 <0>         0.1874
     33 H11       -12.7782    6.6181   -5.0339 H         1 <0>         0.0765
     34 H12       -11.9069    7.5958   -6.2395 H         1 <0>         0.0882
     35 H13       -13.1480    6.4332   -6.7652 H         1 <0>         0.0887
@<TRIPOS>BOND
     1    1   24 1
     2    1   25 1
     3    1   26 1
     4    1    2 1
     5    2    3 2
     6    2    7 1
     7    3    4 1
     8    4    8 1
     9    4    5 2
    10    5    7 1
    11    6    7 1
    12    8   13 ar
    13    8    9 ar
    14    9   10 ar
    15    9   27 1
    16   10   11 ar
    17   10   28 1
    18   11   12 ar
    19   11   14 1
    20   12   13 ar
    21   12   29 1
    22   13   30 1
    23   14   15 1
    24   15   16 2
    25   15   17 2
    26   15   18 1
    27   18   22 2
    28   18   19 1
    29   19   20 2
    30   19   31 1
    31   20   21 1
    32   21   22 1
    33   21   23 1
    34   22   32 1
    35   23   33 1
    36   23   34 1
    37   23   35 1
@<TRIPOS>MOLECULE
ZINC62426781
   35    37     0     0     0
SMALL
USER_CHARGES

@<TRIPOS>ATOM
      1 C1         -1.9720    3.3974   -0.9076 C.3       1 <0>        -0.1418
      2 C2         -1.4286    2.0038   -0.5859 C.3       1 <0>         0.0064
      3 C3         -0.6661    2.0473    0.7399 C.3       1 <0>        -0.1419
      4 C4         -2.5744    1.0312   -0.4747 C.2       1 <0>        -0.0460
      5 N1         -3.5983    1.0527    0.3457 N.2       1 <0>        -0.2604
      6 N2         -4.4625    0.1302    0.2756 N.2       1 <0>        -0.2299
      7 C5         -4.3043   -0.8228   -0.6211 C.2       1 <0>         0.1915
      8 S1         -2.8741   -0.3578   -1.3755 S.3       1 <0>         0.2528
      9 N3         -5.1151   -1.9282   -0.8805 N.pl3     1 <0>        -0.2915
     10 C6         -6.1522   -2.3589   -0.1302 C.2       1 <0>         0.0972
     11 C7         -6.6582   -3.4750   -0.7609 C.2       1 <0>        -0.0733
     12 N4         -5.9284   -3.6993   -1.8690 N.2       1 <0>        -0.1669
     13 N5         -5.0128   -2.8008   -1.9727 N.2       1 <0>        -0.0930
     14 C8         -7.7990   -4.2824   -0.3014 C.2       1 <0>         0.5633
     15 O1         -8.3574   -4.0086    0.7522 O.co2     1 <0>        -0.6713
     16 O2         -8.1894   -5.2277   -0.9730 O.co2     1 <0>        -0.6602
     17 C9         -6.6574   -1.7400    1.1476 C.3       1 <0>         0.1505
     18 H1         -6.8436   -2.5188    1.8871 H         1 <0>         0.1286
     19 C10        -7.9594   -0.9577    0.8716 C.3       1 <0>        -0.1274
     20 C11        -7.7866    0.2972    1.7701 C.3       1 <0>        -0.1629
     21 C12        -6.2545    0.5117    1.6843 C.3       1 <0>         0.0762
     22 O3         -5.6910   -0.8112    1.6529 O.3       1 <0>        -0.3572
     23 H2         -1.1433    4.1009   -0.9879 H         1 <0>         0.0689
     24 H3         -2.5153    3.3665   -1.8520 H         1 <0>         0.0577
     25 H4         -2.6446    3.7177   -0.1119 H         1 <0>         0.0681
     26 H5         -0.7560    1.6835   -1.3816 H         1 <0>         0.0954
     27 H6          0.1626    2.7508    0.6595 H         1 <0>         0.0690
     28 H7         -1.3387    2.3676    1.5355 H         1 <0>         0.0683
     29 H8         -0.2790    1.0544    0.9690 H         1 <0>         0.0580
     30 H9         -8.0274   -0.6761   -0.1792 H         1 <0>         0.0641
     31 H10        -8.8315   -1.5361    1.1766 H         1 <0>         0.1043
     32 H11        -8.3264    1.1510    1.3605 H         1 <0>         0.0767
     33 H12        -8.0979    0.0928    2.7945 H         1 <0>         0.0767
     34 H13        -5.9988    1.0543    0.7741 H         1 <0>         0.0739
     35 H14        -5.8985    1.0529    2.5609 H         1 <0>         0.0759
@<TRIPOS>BOND
     1    1    2 1
     2    1   23 1
     3    1   24 1
     4    1   25 1
     5    2    3 1
     6    2    4 1
     7    2   26 1
     8    3   27 1
     9    3   28 1
    10    3   29 1
    11    4    8 1
    12    4    5 2
    13    5    6 1
    14    6    7 2
    15    7    8 1
    16    7    9 1
    17    9   13 1
    18    9   10 1
    19   10   11 2
    20   10   17 1
    21   11   12 1
    22   11   14 1
    23   12   13 2
    24   14   15 2
    25   14   16 1
    26   17   18 1
    27   17   22 1
    28   17   19 1
    29   19   20 1
    30   19   30 1
    31   19   31 1
    32   20   21 1
    33   20   32 1
    34   20   33 1
    35   21   22 1
    36   21   34 1
    37   21   35 1
@<TRIPOS>MOLECULE
ZINC03123749
   39    41     0     0     0
SMALL
USER_CHARGES
4-nitro-2-[[2-[(5-nitro-2-furyl)methyleneamino]phenyl]iminomethyl]phenol
@<TRIPOS>ATOM
      1 C1          3.8405    3.1410   -0.2379 C.ar      1 <0>        -0.1527
      2 C2          3.7820    1.7617   -0.4831 C.ar      1 <0>        -0.0800
      3 C3          2.5972    1.1005   -0.5682 C.ar      1 <0>        -0.1755
      4 C4          1.3868    1.8040   -0.4198 C.ar      1 <0>         0.1771
      5 C5          1.4452    3.2633   -0.1603 C.ar      1 <0>         0.0241
      6 C6          2.7179    3.8832   -0.0791 C.ar      1 <0>        -0.1074
      7 N1          0.3333    3.9716   -0.0082 N.2       1 <0>        -0.3648
      8 C7          0.1710    5.1082   -0.6815 C.2       1 <0>         0.1312
      9 C8         -0.9572    5.8926   -0.4610 C.2       1 <0>         0.1283
     10 C9         -1.2570    7.1196   -1.0960 C.2       1 <0>        -0.1827
     11 C10        -2.4682    7.5430   -0.5794 C.2       1 <0>        -0.0630
     12 C11        -2.8732    6.5971    0.3460 C.2       1 <0>         0.0392
     13 O1         -1.9605    5.6212    0.4030 O.3       1 <0>        -0.1092
     14 N2         -4.1301    6.6569    1.1535 N.pl3     1 <0>         0.0217
     15 O2         -4.9564    7.6726    1.0114 O.2       1 <0>        -0.1610
     16 O3         -4.4110    5.6939    2.0068 O.3       1 <0>        -0.1507
     17 N3          0.2126    1.1708   -0.5051 N.2       1 <0>        -0.4672
     18 C12         0.0202    0.0441    0.1567 C.2       1 <0>         0.2531
     19 C13        -1.1794   -0.6850   -0.0213 C.ar      1 <0>        -0.2420
     20 C14        -1.3880   -1.8885    0.6760 C.ar      1 <0>         0.0487
     21 C15        -2.5488   -2.5833    0.5030 C.ar      1 <0>        -0.1213
     22 C16        -3.5278   -2.1181   -0.3670 C.ar      1 <0>        -0.0155
     23 C17        -3.3445   -0.9420   -1.0671 C.ar      1 <0>        -0.2222
     24 C18        -2.1757   -0.2132   -0.9056 C.ar      1 <0>         0.3310
     25 N4         -2.7657   -3.8466    1.2444 N.pl3     1 <0>         0.0283
     26 O4         -3.8826   -4.5244    1.0780 O.2       1 <0>        -0.2478
     27 O5         -1.8417   -4.2925    2.0702 O.3       1 <0>        -0.2522
     28 H1          4.8044    3.6239   -0.1737 H         1 <0>         0.1208
     29 H2          4.7022    1.2093   -0.6033 H         1 <0>         0.1210
     30 H3          2.5845    0.0366   -0.7534 H         1 <0>         0.1285
     31 H4          2.7924    4.9440    0.1091 H         1 <0>         0.1249
     32 H5          0.9148    5.4218   -1.3990 H         1 <0>         0.1552
     33 H6         -0.6592    7.6255   -1.8397 H         1 <0>         0.1870
     34 H7         -2.9969    8.4465   -0.8450 H         1 <0>         0.1856
     35 H8          0.7785   -0.3207    0.8337 H         1 <0>         0.0979
     36 H9         -0.6313   -2.2601    1.3511 H         1 <0>         0.1369
     37 H10        -4.4402   -2.6813   -0.4965 H         1 <0>         0.1324
     38 H11        -4.1115   -0.5898   -1.7409 H         1 <0>         0.1286
     39 O6         -1.9904    0.9408   -1.5901 O.3       1 <0>        -0.5861
@<TRIPOS>BOND
     1    1    6 ar
     2    1    2 ar
     3    1   28 1
     4    2    3 ar
     5    2   29 1
     6    3    4 ar
     7    3   30 1
     8    4    5 ar
     9    4   17 1
    10    5    6 ar
    11    5    7 1
    12    6   31 1
    13    7    8 2
    14    8    9 1
    15    8   32 1
    16    9   13 1
    17    9   10 2
    18   10   11 1
    19   10   33 1
    20   11   12 2
    21   11   34 1
    22   12   13 1
    23   12   14 1
    24   14   15 2
    25   14   16 1
    26   17   18 2
    27   18   19 1
    28   18   35 1
    29   19   24 ar
    30   19   20 ar
    31   20   21 ar
    32   20   36 1
    33   21   22 ar
    34   21   25 1
    35   22   23 ar
    36   22   37 1
    37   23   24 ar
    38   23   38 1
    39   24   39 1
    40   25   26 2
    41   25   27 1
@<TRIPOS>MOLECULE
ZINC32637833
   44    47     0     0     0
SMALL
USER_CHARGES
2-[(N'E)-N'-[(2-hydroxy-5-nitro-phenyl)methylene]hydrazino]-3-phenyl-quinazolin-4-one
@<TRIPOS>ATOM
      1 C1          0.0420   -6.9243   -0.3469 C.ar      1 <0>        -0.1032
      2 C2          0.6880   -6.1803   -1.3170 C.ar      1 <0>        -0.1095
      3 C3          0.7040   -4.8016   -1.2354 C.ar      1 <0>        -0.0983
      4 C4          0.0703   -4.1628   -0.1777 C.ar      1 <0>         0.0954
      5 C5         -0.5727   -4.9131    0.7979 C.ar      1 <0>        -0.0979
      6 C6         -0.5900   -6.2912    0.7076 C.ar      1 <0>        -0.1095
      7 N1          0.0846   -2.7648   -0.0921 N.am      1 <0>        -0.5183
      8 C7          1.0865   -2.1420    0.5712 C.2       1 <0>         0.5696
      9 O1          1.9830   -2.7741    1.0991 O.2       1 <0>        -0.5112
     10 C8          1.0520   -0.6746    0.6295 C.ar      1 <0>        -0.2419
     11 C9          2.0373    0.0593    1.2885 C.ar      1 <0>        -0.0303
     12 C10         1.9571    1.4244    1.3136 C.ar      1 <0>        -0.1692
     13 C11         0.9062    2.0852    0.6904 C.ar      1 <0>        -0.0644
     14 C12        -0.0728    1.3907    0.0375 C.ar      1 <0>        -0.1242
     15 C13        -0.0191   -0.0057   -0.0060 C.ar      1 <0>         0.2134
     16 N2         -0.9641   -0.7298   -0.6386 N.2       1 <0>        -0.5269
     17 C14        -0.9143   -2.0378   -0.6791 C.2       1 <0>         0.6574
     18 N3         -1.9108   -2.7106   -1.3418 N.pl3     1 <0>        -0.5707
     19 N4         -2.9580   -1.9986   -1.9412 N.2       1 <0>        -0.1581
     20 C15        -3.9002   -2.6348   -2.5679 C.2       1 <0>         0.1239
     21 C16        -5.0019   -1.8857   -3.1984 C.ar      1 <0>        -0.2006
     22 C17        -6.0176   -2.5662   -3.8736 C.ar      1 <0>         0.0274
     23 C18        -7.0456   -1.8594   -4.4615 C.ar      1 <0>        -0.1808
     24 C19        -7.0752   -0.4773   -4.3853 C.ar      1 <0>        -0.0138
     25 C20        -6.0761    0.2076   -3.7196 C.ar      1 <0>        -0.2378
     26 C21        -5.0391   -0.4870   -3.1189 C.ar      1 <0>         0.3134
     27 O2         -4.0599    0.1849   -2.4598 O.3       1 <0>        -0.6019
     28 N5         -8.1220   -2.5813   -5.1765 N.pl3     1 <0>         0.0693
     29 O3         -8.0987   -3.7972   -5.2447 O.2       1 <0>        -0.2283
     30 O4         -9.0310   -1.9595   -5.6966 O.3       1 <0>        -0.2248
     31 H1          0.0306   -8.0023   -0.4131 H         1 <0>         0.1310
     32 H2          1.1804   -6.6776   -2.1396 H         1 <0>         0.1332
     33 H3          1.2084   -4.2210   -1.9935 H         1 <0>         0.1283
     34 H4         -1.0623   -4.4193    1.6243 H         1 <0>         0.1283
     35 H5         -1.0934   -6.8750    1.4639 H         1 <0>         0.1332
     36 H6          2.8577   -0.4464    1.7760 H         1 <0>         0.1290
     37 H7          2.7195    1.9949    1.8232 H         1 <0>         0.1249
     38 H8          0.8625    3.1638    0.7221 H         1 <0>         0.1281
     39 H9         -0.8816    1.9181   -0.4464 H         1 <0>         0.1412
     40 H10        -1.8870   -3.8087   -1.4022 H         1 <0>         0.3937
     41 H11        -3.8763   -3.7329   -2.6284 H         1 <0>         0.1048
     42 H12        -5.9980   -3.6443   -3.9355 H         1 <0>         0.1282
     43 H13        -7.8837    0.0687   -4.8484 H         1 <0>         0.1250
     44 H14        -6.1062    1.2858   -3.6642 H         1 <0>         0.1230
@<TRIPOS>BOND
     1    1    6 ar
     2    1    2 ar
     3    1   31 1
     4    2    3 ar
     5    2   32 1
     6    3    4 ar
     7    3   33 1
     8    4    5 ar
     9    4    7 1
    10    5    6 ar
    11    5   34 1
    12    6   35 1
    13    7   17 1
    14    7    8 am
    15    8    9 2
    16    8   10 1
    17   10   15 ar
    18   10   11 ar
    19   11   12 ar
    20   11   36 1
    21   12   13 ar
    22   12   37 1
    23   13   14 ar
    24   13   38 1
    25   14   15 ar
    26   14   39 1
    27   15   16 1
    28   16   17 2
    29   17   18 1
    30   18   19 1
    31   18   40 1
    32   19   20 2
    33   20   21 1
    34   20   41 1
    35   21   26 ar
    36   21   22 ar
    37   22   23 ar
    38   22   42 1
    39   23   24 ar
    40   23   28 1
    41   24   25 ar
    42   24   43 1
    43   25   26 ar
    44   25   44 1
    45   26   27 1
    46   28   29 2
    47   28   30 1
@<TRIPOS>MOLECULE
ZINC46849648
   48    52     0     0     0
SMALL
USER_CHARGES

@<TRIPOS>ATOM
      1 C1         -0.0162    1.3437    0.0094 C.2       1 <0>        -0.2103
      2 C2          1.3242    1.7755   -0.0010 C.2       1 <0>        -0.1436
      3 C3          2.0975    0.6536   -0.0145 C.2       1 <0>         0.0521
      4 O1          1.2800   -0.4179   -0.0124 O.3       1 <0>        -0.1749
      5 C4          0.0021   -0.0041    0.0020 C.2       1 <0>        -0.0236
      6 C5          3.5681    0.6181   -0.0287 C.2       1 <0>         0.2395
      7 N1          4.3723    1.6230   -0.2991 N.2       1 <0>        -0.2500
      8 N2          5.5960    1.2388   -0.2200 N.2       1 <0>        -0.2933
      9 C6          5.6510   -0.0331    0.1052 C.2       1 <0>         0.1605
     10 N3          4.3642   -0.4725    0.2445 N.pl3     1 <0>        -0.4495
     11 C7          3.9236   -1.8223    0.6054 C.3       1 <0>         0.1365
     12 C8          4.4773   -2.1879    1.9841 C.3       1 <0>        -0.1369
     13 C9          4.0171   -3.5975    2.3610 C.3       1 <0>        -0.1101
     14 C10         4.5321   -4.5968    1.3231 C.3       1 <0>        -0.1271
     15 C11         3.9784   -4.2311   -0.0555 C.3       1 <0>        -0.1100
     16 C12         4.4386   -2.8215   -0.4324 C.3       1 <0>        -0.1363
     17 S1          7.1123   -0.9922    0.3279 S.3       1 <0>         0.0831
     18 C13         8.4594    0.1795    0.0069 C.3       1 <0>        -0.0640
     19 C14         9.7837   -0.5218    0.1657 C.2       1 <0>         0.2442
     20 C15        10.9705    0.1831   -0.0274 C.2       1 <0>        -0.3570
     21 C16        12.1659   -0.4652    0.1198 C.2       1 <0>         0.4957
     22 N4         12.1643   -1.7910    0.4533 N.pl3     1 <0>        -0.3382
     23 C17        10.9754   -2.4418    0.6328 C.2       1 <0>         0.3771
     24 N5          9.8158   -1.7976    0.4917 N.2       1 <0>        -0.5642
     25 C18        11.2893   -3.7734    0.9635 C.2       1 <0>        -0.2630
     26 C19        12.6926   -3.8741    0.9702 C.2       1 <0>         0.1277
     27 N6         13.1988   -2.7072    0.6700 N.2       1 <0>        -0.3081
     28 C20        10.3578   -4.8252    1.2405 C.1       1 <0>         0.3265
     29 N7          9.6189   -5.6596    1.4601 N.1       1 <0>        -0.4845
     30 O2         13.3317    0.1952   -0.0623 O.3       1 <0>        -0.6402
     31 H1         -0.8933    1.9736    0.0252 H         1 <0>         0.1567
     32 H2          1.6719    2.7979    0.0008 H         1 <0>         0.1610
     33 H3         -0.8670   -0.6452    0.0069 H         1 <0>         0.2096
     34 H4          2.8344   -1.8541    0.6313 H         1 <0>         0.1103
     35 H5          5.5666   -2.1561    1.9582 H         1 <0>         0.0894
     36 H6          4.1105   -1.4761    2.7235 H         1 <0>         0.0691
     37 H7          4.4116   -3.8580    3.3432 H         1 <0>         0.0733
     38 H8          2.9279   -3.6294    2.3869 H         1 <0>         0.0626
     39 H9          5.6213   -4.5649    1.2973 H         1 <0>         0.0739
     40 H10         4.2043   -5.6010    1.5917 H         1 <0>         0.0675
     41 H11         4.3452   -4.9430   -0.7949 H         1 <0>         0.0733
     42 H12         2.8891   -4.2630   -0.0296 H         1 <0>         0.0629
     43 H13         4.0441   -2.5610   -1.4146 H         1 <0>         0.0694
     44 H14         5.5278   -2.7896   -0.4583 H         1 <0>         0.0891
     45 H15         8.3717    0.5646   -1.0091 H         1 <0>         0.1188
     46 H16         8.3986    1.0059    0.7151 H         1 <0>         0.1187
     47 H17        10.9465    1.2302   -0.2908 H         1 <0>         0.1458
     48 H18        13.2582   -4.7681    1.1876 H         1 <0>         0.1904
@<TRIPOS>BOND
     1    1    5 2
     2    1    2 1
     3    1   31 1
     4    2    3 2
     5    2   32 1
     6    3    4 1
     7    3    6 1
     8    4    5 1
     9    5   33 1
    10    6   10 1
    11    6    7 2
    12    7    8 1
    13    8    9 2
    14    9   10 1
    15    9   17 1
    16   10   11 1
    17   11   16 1
    18   11   12 1
    19   11   34 1
    20   12   13 1
    21   12   35 1
    22   12   36 1
    23   13   14 1
    24   13   37 1
    25   13   38 1
    26   14   15 1
    27   14   39 1
    28   14   40 1
    29   15   16 1
    30   15   41 1
    31   15   42 1
    32   16   43 1
    33   16   44 1
    34   17   18 1
    35   18   19 1
    36   18   45 1
    37   18   46 1
    38   19   24 2
    39   19   20 1
    40   20   21 2
    41   20   47 1
    42   21   22 1
    43   21   30 1
    44   22   27 1
    45   22   23 1
    46   23   24 1
    47   23   25 2
    48   25   26 1
    49   25   28 1
    50   26   27 2
    51   26   48 1
    52   28   29 3
@<TRIPOS>MOLECULE
ZINC62022662
   46    50     0     0     0
SMALL
USER_CHARGES

@<TRIPOS>ATOM
      1 C1          0.4530    1.0928   -3.8541 C.2       1 <0>        -0.2257
      2 C2          1.7972    1.4853   -3.7580 C.2       1 <0>        -0.1210
      3 C3          2.4654    0.4547   -3.1615 C.2       1 <0>        -0.0751
      4 O1          1.5754   -0.5256   -2.9026 O.3       1 <0>        -0.1568
      5 C4          0.3608   -0.1445   -3.3188 C.2       1 <0>        -0.0115
      6 C5          3.8994    0.4194   -2.8562 C.2       1 <0>         0.6022
      7 O2          4.5842    1.4095   -3.0350 O.2       1 <0>        -0.5246
      8 N1          4.4590   -0.7095   -2.3777 N.am      1 <0>        -0.6005
      9 C6          3.7175   -1.9782   -2.3972 C.3       1 <0>         0.0844
     10 C7          4.5574   -3.0254   -3.1390 C.3       1 <0>         0.1252
     11 N2          5.9201   -3.0098   -2.5888 N.pl3     1 <0>        -0.5968
     12 C8          6.6616   -1.7411   -2.5693 C.3       1 <0>         0.1188
     13 C9          5.8237   -0.6951   -1.8327 C.3       1 <0>         0.0976
     14 C10         6.4946   -4.1688   -2.0976 C.ar      1 <0>         0.5740
     15 N3          5.8418   -5.3010   -2.2525 N.ar      1 <0>        -0.5652
     16 C11         6.3468   -6.4593   -1.7982 C.ar      1 <0>         0.2135
     17 C12         7.6125   -6.4378   -1.1405 C.ar      1 <0>        -0.1859
     18 C13         8.2850   -5.1489   -1.0011 C.ar      1 <0>         0.5181
     19 N4          7.6800   -4.0790   -1.4988 N.ar      1 <0>        -0.6199
     20 N5          9.5101   -5.0486   -0.3770 N.pl3     1 <0>        -0.6357
     21 C14        10.1952   -3.8289   -0.3728 C.ar      1 <0>         0.1654
     22 C15         9.4910   -2.6354   -0.4652 C.ar      1 <0>        -0.1136
     23 C16        10.1693   -1.4324   -0.4608 C.ar      1 <0>        -0.1320
     24 C17        11.5507   -1.4156   -0.3649 C.ar      1 <0>         0.0593
     25 C18        12.2549   -2.6044   -0.2732 C.ar      1 <0>        -0.1307
     26 C19        11.5801   -3.8095   -0.2704 C.ar      1 <0>        -0.1359
     27 F1         12.2123   -0.2377   -0.3613 F         1 <0>        -0.1482
     28 N6          7.8615   -7.6880   -0.8040 N.2       1 <0>        -0.3306
     29 N7          6.8778   -8.4227   -1.1967 N.2       1 <0>        -0.1220
     30 N8          5.9698   -7.7243   -1.7863 N.2       1 <0>        -0.3582
     31 H1         -0.3562    1.6726   -4.2729 H         1 <0>         0.1554
     32 H2          2.2209    2.4212   -4.0913 H         1 <0>         0.1591
     33 H3         -0.5435   -0.7296   -3.2393 H         1 <0>         0.2093
     34 H4          3.5361   -2.3117   -1.3755 H         1 <0>         0.0765
     35 H5          2.7675   -1.8389   -2.9133 H         1 <0>         0.1081
     36 H6          4.1177   -4.0129   -2.9991 H         1 <0>         0.1147
     37 H7          4.5890   -2.7834   -4.2013 H         1 <0>         0.0595
     38 H8          7.6115   -1.8804   -2.0533 H         1 <0>         0.1110
     39 H9          6.8430   -1.4076   -3.5911 H         1 <0>         0.0607
     40 H10         6.2645    0.2915   -1.9761 H         1 <0>         0.1020
     41 H11         5.7958   -0.9350   -0.7699 H         1 <0>         0.0757
     42 H12         9.8971   -5.8238    0.0592 H         1 <0>         0.4257
     43 H13         8.4137   -2.6480   -0.5407 H         1 <0>         0.1760
     44 H14         9.6221   -0.5041   -0.5327 H         1 <0>         0.1337
     45 H15        13.3322   -2.5890   -0.1988 H         1 <0>         0.1324
     46 H16        12.1294   -4.7362   -0.1940 H         1 <0>         0.1317
@<TRIPOS>BOND
     1    1    5 2
     2    1    2 1
     3    1   31 1
     4    2    3 2
     5    2   32 1
     6    3    4 1
     7    3    6 1
     8    4    5 1
     9    5   33 1
    10    6    7 2
    11    6    8 am
    12    8   13 1
    13    8    9 1
    14    9   10 1
    15    9   34 1
    16    9   35 1
    17   10   11 1
    18   10   36 1
    19   10   37 1
    20   11   12 1
    21   11   14 1
    22   12   13 1
    23   12   38 1
    24   12   39 1
    25   13   40 1
    26   13   41 1
    27   14   19 ar
    28   14   15 ar
    29   15   16 ar
    30   16   17 ar
    31   16   30 2
    32   17   18 ar
    33   17   28 2
    34   18   19 ar
    35   18   20 1
    36   20   21 1
    37   20   42 1
    38   21   26 ar
    39   21   22 ar
    40   22   23 ar
    41   22   43 1
    42   23   24 ar
    43   23   44 1
    44   24   25 ar
    45   24   27 1
    46   25   26 ar
    47   25   45 1
    48   26   46 1
    49   28   29 1
    50   29   30 1
@<TRIPOS>MOLECULE
ZINC64475570
   42    43     0     0     0
SMALL
USER_CHARGES

@<TRIPOS>ATOM
      1 C1         -0.0422    1.5496   -0.0489 C.3       1 <0>        -0.1375
      2 C2         -0.0073    0.0210    0.0069 C.3       1 <0>        -0.0833
      3 C3         -1.4162   -0.5137    0.0150 C.ar      1 <0>        -0.1254
      4 C4         -1.9822   -0.9488    1.1996 C.ar      1 <0>        -0.0609
      5 C5         -3.2731   -1.4388    1.2107 C.ar      1 <0>        -0.2149
      6 C6         -4.0035   -1.4946    0.0302 C.ar      1 <0>         0.2784
      7 C7         -3.4320   -1.0568   -1.1576 C.ar      1 <0>        -0.1179
      8 C8         -2.1421   -0.5629   -1.1607 C.ar      1 <0>        -0.0011
      9 N1         -1.5345   -0.0905   -2.4249 N.pl3     1 <0>         0.0447
     10 O1         -2.1989   -0.0416   -3.4337 O.2       1 <0>        -0.1838
     11 O2         -0.3736    0.2465   -2.4487 O.3       1 <0>        -0.1727
     12 N2         -5.3094   -1.9901    0.0378 N.2       1 <0>        -1.0827
     13 S1         -5.9887   -2.5121    1.4550 S.o2      1 <0>         2.6050
     14 O3         -5.2570   -3.6620    1.8568 O.2       1 <0>        -1.0176
     15 O4         -6.1253   -1.3673    2.2857 O.2       1 <0>        -1.0209
     16 C9         -7.6209   -3.0595    1.0797 C.ar      1 <0>        -0.6368
     17 C10        -8.6779   -2.1699    1.1331 C.ar      1 <0>         0.0329
     18 C11        -9.9582   -2.5993    0.8387 C.ar      1 <0>        -0.1621
     19 C12       -10.1819   -3.9185    0.4904 C.ar      1 <0>         0.0172
     20 C13        -9.1251   -4.8076    0.4361 C.ar      1 <0>        -0.7031
     21 C14        -7.8438   -4.3771    0.7264 C.ar      1 <0>         0.0738
     22 S2         -9.4103   -6.4889   -0.0073 S.o2      1 <0>         2.6989
     23 O5         -8.3393   -7.2419    0.5451 O.2       1 <0>        -0.9505
     24 O6        -10.7710   -6.7638    0.2963 O.2       1 <0>        -0.9620
     25 N3         -9.2623   -6.5930   -1.6534 N.pl3     1 <0>        -1.1192
     26 C15        -7.9685   -6.3346   -2.2904 C.3       1 <0>         0.0774
     27 H1          0.9769    1.9363   -0.0548 H         1 <0>         0.0556
     28 H2         -0.5570    1.8684   -0.9552 H         1 <0>         0.0512
     29 H3         -0.5712    1.9330    0.8236 H         1 <0>         0.0473
     30 H4          0.5218   -0.3624   -0.8656 H         1 <0>         0.0937
     31 H5          0.5076   -0.2979    0.9132 H         1 <0>         0.0642
     32 H6         -1.4138   -0.9055    2.1169 H         1 <0>         0.1282
     33 H7         -3.7144   -1.7787    2.1360 H         1 <0>         0.1146
     34 H8         -3.9969   -1.0992   -2.0771 H         1 <0>         0.1433
     35 H9         -8.5031   -1.1395    1.4052 H         1 <0>         0.1466
     36 H10       -10.7839   -1.9046    0.8812 H         1 <0>         0.1399
     37 H11       -11.1824   -4.2542    0.2610 H         1 <0>         0.1438
     38 H12        -7.0175   -5.0710    0.6803 H         1 <0>         0.1542
     39 H13       -10.0322   -6.8251   -2.1959 H         1 <0>         0.4180
     40 H14        -8.0656   -6.4498   -3.3699 H         1 <0>         0.0853
     41 H15        -7.6469   -5.3188   -2.0608 H         1 <0>         0.0661
     42 H16        -7.2305   -7.0431   -1.9143 H         1 <0>         0.0720
@<TRIPOS>BOND
     1    1    2 1
     2    1   27 1
     3    1   28 1
     4    1   29 1
     5    2    3 1
     6    2   30 1
     7    2   31 1
     8    3    8 ar
     9    3    4 ar
    10    4    5 ar
    11    4   32 1
    12    5    6 ar
    13    5   33 1
    14    6    7 ar
    15    6   12 1
    16    7    8 ar
    17    7   34 1
    18    8    9 1
    19    9   10 2
    20    9   11 1
    21   12   13 1
    22   13   14 2
    23   13   15 2
    24   13   16 1
    25   16   21 ar
    26   16   17 ar
    27   17   18 ar
    28   17   35 1
    29   18   19 ar
    30   18   36 1
    31   19   20 ar
    32   19   37 1
    33   20   21 ar
    34   20   22 1
    35   21   38 1
    36   22   23 2
    37   22   24 2
    38   22   25 1
    39   25   26 1
    40   25   39 1
    41   26   40 1
    42   26   41 1
    43   26   42 1
@<TRIPOS>MOLECULE
ZINC01682479
   26    28     0     0     0
SMALL
USER_CHARGES
9H-fluoren-9-ylphosphonic acid
@<TRIPOS>ATOM
      1 C1         -0.0126    1.0758    0.0080 C.ar      1 <0>        -0.1514
      2 C2         -1.2214    1.7484    0.0174 C.ar      1 <0>        -0.1238
      3 C3         -1.2455    3.1317    0.0305 C.ar      1 <0>        -0.0996
      4 C4         -0.0641    3.8427    0.0233 C.ar      1 <0>        -0.0135
      5 C5          1.1573    3.1750    0.0081 C.ar      1 <0>        -0.0697
      6 C6          1.1740    1.7789    0.0004 C.ar      1 <0>        -0.1077
      7 C7          2.2620    4.1658    0.0023 C.ar      1 <0>        -0.0685
      8 C8          3.6480    3.9977   -0.0128 C.ar      1 <0>        -0.1077
      9 C9          4.4757    5.1009   -0.0150 C.ar      1 <0>        -0.1515
     10 C10         3.9383    6.3757   -0.0028 C.ar      1 <0>        -0.1244
     11 C11         2.5659    6.5498    0.0115 C.ar      1 <0>        -0.1002
     12 C12         1.7308    5.4524    0.0140 C.ar      1 <0>        -0.0147
     13 C13         0.2274    5.3234    0.0280 C.3       1 <0>        -0.6104
     14 P1         -0.4546    6.0925    1.5336 P.3       1 <0>         2.1966
     15 O1         -0.0904    7.5267    1.5632 O.2       1 <0>        -1.1410
     16 H1          0.0021   -0.0041    0.0020 H         1 <0>         0.1112
     17 H2         -2.1476    1.1929    0.0184 H         1 <0>         0.1161
     18 H3         -2.1902    3.6549    0.0423 H         1 <0>         0.1357
     19 H4          2.1154    1.2499   -0.0111 H         1 <0>         0.1077
     20 H5          4.0717    3.0043   -0.0216 H         1 <0>         0.1080
     21 H6          5.5476    4.9691   -0.0265 H         1 <0>         0.1113
     22 H7          4.5911    7.2361   -0.0048 H         1 <0>         0.1159
     23 H8          2.1483    7.5457    0.0209 H         1 <0>         0.1339
     24 H9         -0.1978    5.7924   -0.8593 H         1 <0>         0.0985
     25 O2         -2.0579    5.9459    1.5321 O.3       1 <0>        -1.1774
     26 O3          0.1503    5.3583    2.8325 O.3       1 <0>        -1.1733
@<TRIPOS>BOND
     1    1    6 ar
     2    1    2 ar
     3    1   16 1
     4    2    3 ar
     5    2   17 1
     6    3    4 ar
     7    3   18 1
     8    4   13 1
     9    4    5 ar
    10    5    6 ar
    11    5    7 1
    12    6   19 1
    13    7   12 ar
    14    7    8 ar
    15    8    9 ar
    16    8   20 1
    17    9   10 ar
    18    9   21 1
    19   10   11 ar
    20   10   22 1
    21   11   12 ar
    22   11   23 1
    23   12   13 1
    24   13   14 1
    25   13   24 1
    26   14   15 2
    27   14   25 1
    28   14   26 1
@<TRIPOS>MOLECULE
ZINC16321382
   28    29     0     0     0
SMALL
USER_CHARGES

@<TRIPOS>ATOM
      1 C1         -0.6167    1.5067   -2.1653 C.3       1 <0>        -0.1681
      2 C2         -0.6037   -0.0002   -2.1694 C.2       1 <0>         0.5042
      3 O1         -1.1366   -0.6088   -3.0731 O.2       1 <0>        -0.5199
      4 N1          0.0001   -0.6716   -1.1688 N.am      1 <0>        -0.6735
      5 C3         -0.0708   -2.0682   -1.1208 C.ar      1 <0>         0.1649
      6 C4         -0.1517   -2.7192    0.1032 C.ar      1 <0>        -0.1696
      7 C5         -0.2215   -4.0979    0.1472 C.ar      1 <0>        -0.0053
      8 C6         -0.2108   -4.8300   -1.0259 C.ar      1 <0>        -0.6247
      9 C7         -0.1298   -4.1848   -2.2463 C.ar      1 <0>        -0.0053
     10 C8         -0.0660   -2.8061   -2.2973 C.ar      1 <0>        -0.1453
     11 S1         -0.3000   -6.5887   -0.9655 S.o2      1 <0>         2.6235
     12 O2          0.2766   -7.0663   -2.1733 O.2       1 <0>        -1.0166
     13 O3          0.1818   -6.9760    0.3140 O.2       1 <0>        -1.0173
     14 N2         -1.9035   -6.9995   -1.0117 N.2       1 <0>        -1.0357
     15 C9         -2.2795   -8.3372   -0.9775 C.2       1 <0>         0.4062
     16 N3         -1.5245   -9.4157   -0.9037 N.2       1 <0>        -0.4607
     17 N4         -2.1091  -10.6608   -0.8821 N.2       1 <0>        -0.3470
     18 C10        -3.4227  -10.7699   -0.9353 C.2       1 <0>         0.2723
     19 S2         -4.4242  -12.2196   -0.9241 S.3       1 <0>        -0.7956
     20 S3         -3.9150   -9.0546   -1.0138 S.3       1 <0>        -0.2178
     21 H1         -1.5023    1.8610   -1.6379 H         1 <0>         0.0959
     22 H2          0.2774    1.8764   -1.6633 H         1 <0>         0.0802
     23 H3         -0.6345    1.8727   -3.1919 H         1 <0>         0.0949
     24 H4          0.4837   -0.1866   -0.4820 H         1 <0>         0.4093
     25 H5         -0.1598   -2.1480    1.0197 H         1 <0>         0.1272
     26 H6         -0.2841   -4.6048    1.0988 H         1 <0>         0.1423
     27 H7         -0.1213   -4.7594   -3.1607 H         1 <0>         0.1416
     28 H8         -0.0080   -2.3025   -3.2510 H         1 <0>         0.1398
@<TRIPOS>BOND
     1    1    2 1
     2    1   21 1
     3    1   22 1
     4    1   23 1
     5    2    3 2
     6    2    4 am
     7    4    5 1
     8    4   24 1
     9    5   10 ar
    10    5    6 ar
    11    6    7 ar
    12    6   25 1
    13    7    8 ar
    14    7   26 1
    15    8    9 ar
    16    8   11 1
    17    9   10 ar
    18    9   27 1
    19   10   28 1
    20   11   12 2
    21   11   13 2
    22   11   14 1
    23   14   15 1
    24   15   20 1
    25   15   16 2
    26   16   17 1
    27   17   18 2
    28   18   19 1
    29   18   20 1
@<TRIPOS>MOLECULE
ZINC38025376
   32    33     0     0     0
SMALL
USER_CHARGES

@<TRIPOS>ATOM
      1 C1          0.0099    1.3725    0.1790 C.ar      1 <0>        -0.0414
      2 C2          1.2084    2.0501    0.0326 C.ar      1 <0>        -0.2437
      3 C3          2.3193    1.3297   -0.4007 C.ar      1 <0>         0.3686
      4 O1          3.5126    1.9526   -0.5575 O.3       1 <0>        -0.7080
      5 N1          2.2081    0.0329   -0.6594 N.ar      1 <0>        -0.3632
      6 N2          1.0988   -0.5986   -0.5248 N.ar      1 <0>        -0.1682
      7 C4         -0.0115    0.0050   -0.1174 C.ar      1 <0>        -0.0986
      8 C5         -1.2665   -0.7654    0.0230 C.2       1 <0>         0.6014
      9 O2         -2.3132   -0.1875    0.2417 O.2       1 <0>        -0.5212
     10 N3         -1.2494   -2.1082   -0.0915 N.am      1 <0>        -0.5862
     11 C6          0.0233   -2.8424   -0.1025 C.3       1 <0>         0.0878
     12 C7         -0.0258   -3.9303    0.9750 C.3       1 <0>        -0.1332
     13 C8         -1.2596   -4.8079    0.7523 C.3       1 <0>        -0.1155
     14 C9         -2.5237   -3.9533    0.8709 C.3       1 <0>        -0.1309
     15 C10        -2.5032   -2.8662   -0.2016 C.3       1 <0>         0.1723
     16 H1         -2.5657   -3.3280   -1.1869 H         1 <0>         0.0636
     17 C11        -3.6915   -1.9244    0.0029 C.3       1 <0>        -0.1800
     18 C12        -3.8126   -1.0035   -1.1837 C.2       1 <0>         0.5235
     19 O3         -3.0218   -1.0921   -2.1074 O.co2     1 <0>        -0.7101
     20 O4         -4.7015   -0.1697   -1.2201 O.co2     1 <0>        -0.7230
     21 H2         -0.8803    1.8828    0.5161 H         1 <0>         0.1275
     22 H3          1.2799    3.1060    0.2475 H         1 <0>         0.1192
     23 H4          0.1714   -3.3022   -1.0796 H         1 <0>         0.0542
     24 H5          0.8431   -2.1557    0.1086 H         1 <0>         0.1366
     25 H6          0.8730   -4.5439    0.9136 H         1 <0>         0.0638
     26 H7         -0.0828   -3.4653    1.9591 H         1 <0>         0.0570
     27 H8         -1.2141   -5.2530   -0.2416 H         1 <0>         0.0589
     28 H9         -1.2836   -5.5978    1.5030 H         1 <0>         0.0496
     29 H10        -3.4028   -4.5833    0.7354 H         1 <0>         0.0611
     30 H11        -2.5572   -3.4881    1.8561 H         1 <0>         0.0582
     31 H12        -4.6057   -2.5095    0.1035 H         1 <0>         0.0316
     32 H13        -3.5364   -1.3346    0.9063 H         1 <0>         0.0881
@<TRIPOS>BOND
     1    1    7 ar
     2    1    2 ar
     3    1   21 1
     4    2    3 ar
     5    2   22 1
     6    3    4 1
     7    3    5 ar
     8    5    6 ar
     9    6    7 ar
    10    7    8 1
    11    8    9 2
    12    8   10 am
    13   10   15 1
    14   10   11 1
    15   11   12 1
    16   11   23 1
    17   11   24 1
    18   12   13 1
    19   12   25 1
    20   12   26 1
    21   13   14 1
    22   13   27 1
    23   13   28 1
    24   14   15 1
    25   14   29 1
    26   14   30 1
    27   15   16 1
    28   15   17 1
    29   17   18 1
    30   17   31 1
    31   17   32 1
    32   18   19 2
    33   18   20 1
@<TRIPOS>MOLECULE
ZINC41629190
   33    34     0     0     0
SMALL
USER_CHARGES

@<TRIPOS>ATOM
      1 C1         -0.0184    1.5028    0.0103 C.3       1 <0>        -0.1098
      2 C2          0.0021   -0.0041    0.0020 C.2       1 <0>         0.1916
      3 C3         -1.1715   -0.7013    0.0038 C.2       1 <0>        -0.2964
      4 C4         -1.1276   -2.1065   -0.0045 C.2       1 <0>         0.5300
      5 O1         -2.1575   -2.7607   -0.0036 O.2       1 <0>        -0.5314
      6 N1          0.0760   -2.7182   -0.0140 N.am      1 <0>        -0.6134
      7 H1          0.1298   -3.6867   -0.0202 H         1 <0>         0.4222
      8 C5          1.2143   -1.9705   -0.0153 C.2       1 <0>         0.3624
      9 N2          1.1639   -0.6523   -0.0126 N.2       1 <0>        -0.5448
     10 S1          2.7806   -2.7774   -0.0271 S.3       1 <0>         0.0776
     11 C6          3.9768   -1.4137   -0.0253 C.3       1 <0>        -0.0984
     12 H2          3.7772   -0.7565    0.8211 H         1 <0>         0.1360
     13 C7          3.8487   -0.6212   -1.3277 C.3       1 <0>        -0.1494
     14 C8          5.3727   -1.9700    0.0889 C.2       1 <0>         0.5305
     15 O2          5.6073   -3.1003   -0.2830 O.2       1 <0>        -0.4449
     16 N3          6.3603   -1.2116    0.6045 N.am      1 <0>        -0.6065
     17 C9          7.6485   -1.7250    0.7099 C.2       1 <0>         0.2274
     18 N4          8.1013   -2.9130    0.3604 N.2       1 <0>        -0.2969
     19 N5          9.3116   -3.2394    0.5193 N.2       1 <0>        -0.2360
     20 C10        10.1465   -2.3682    1.0495 C.2       1 <0>         0.0378
     21 S2          9.0407   -0.9885    1.3111 S.3       1 <0>         0.0825
     22 C11        11.6185   -2.4968    1.3457 C.3       1 <0>        -0.0610
     23 H3          1.0042    1.8801    0.0026 H         1 <0>         0.0814
     24 H4         -0.5455    1.8639   -0.8728 H         1 <0>         0.0878
     25 H5         -0.5286    1.8543    0.9071 H         1 <0>         0.0877
     26 H6         -2.1184   -0.1819    0.0118 H         1 <0>         0.1582
     27 H7          4.0482   -1.2784   -2.1741 H         1 <0>         0.0765
     28 H8          2.8390   -0.2188   -1.4104 H         1 <0>         0.0983
     29 H9          4.5674    0.1982   -1.3267 H         1 <0>         0.0772
     30 H10         6.1727   -0.3076    0.9020 H         1 <0>         0.4319
     31 H11        12.1934   -2.1679    0.4800 H         1 <0>         0.0970
     32 H12        11.8713   -1.8777    2.2064 H         1 <0>         0.0920
     33 H13        11.8554   -3.5380    1.5649 H         1 <0>         0.1030
@<TRIPOS>BOND
     1    1    2 1
     2    1   23 1
     3    1   24 1
     4    1   25 1
     5    2    9 1
     6    2    3 2
     7    3    4 1
     8    3   26 1
     9    4    5 2
    10    4    6 am
    11    6    7 1
    12    6    8 1
    13    8    9 2
    14    8   10 1
    15   10   11 1
    16   11   12 1
    17   11   13 1
    18   11   14 1
    19   13   27 1
    20   13   28 1
    21   13   29 1
    22   14   15 2
    23   14   16 am
    24   16   17 1
    25   16   30 1
    26   17   21 1
    27   17   18 2
    28   18   19 1
    29   19   20 2
    30   20   21 1
    31   20   22 1
    32   22   31 1
    33   22   32 1
    34   22   33 1
@<TRIPOS>MOLECULE
ZINC61117443
   26    27     0     0     0
SMALL
USER_CHARGES

@<TRIPOS>ATOM
      1 C1         -0.0167    1.3839    0.0097 C.ar      1 <0>        -0.2092
      2 C2          1.1726    2.0914    0.0021 C.ar      1 <0>         0.1534
      3 C3          2.3812    1.4167   -0.0135 C.ar      1 <0>        -0.2868
      4 C4          2.4038    0.0318   -0.0216 C.ar      1 <0>         0.1456
      5 C5          1.2168   -0.6805   -0.0141 C.ar      1 <0>        -0.1069
      6 C6          0.0021   -0.0041    0.0020 C.ar      1 <0>         0.3083
      7 N1         -1.1986   -0.7208    0.0101 N.2       1 <0>        -1.0756
      8 S1         -1.1746   -2.3766    0.0010 S.o2      1 <0>         2.6604
      9 O1         -0.6303   -2.7680   -1.2520 O.2       1 <0>        -1.0366
     10 O2         -0.6056   -2.7813    1.2386 O.2       1 <0>        -1.0260
     11 C7         -2.8500   -2.9220    0.0147 C.2       1 <0>        -0.7078
     12 C8         -3.6222   -3.1772    1.1500 C.2       1 <0>        -0.0807
     13 C9         -4.8677   -3.5812    0.7077 C.2       1 <0>        -0.0524
     14 N2         -4.8407   -3.5677   -0.6701 N.pl3     1 <0>        -0.5187
     15 H1         -5.5791   -3.8061   -1.2522 H         1 <0>         0.4137
     16 C10        -3.6199   -3.1627   -1.0751 C.2       1 <0>         0.0790
     17 C11        -6.0044   -3.9545    1.5469 C.2       1 <0>         0.5538
     18 O3         -7.0610   -4.2966    1.0302 O.co2     1 <0>        -0.7054
     19 O4         -5.9006   -3.9253    2.7671 O.co2     1 <0>        -0.6764
     20 F1          1.2386   -2.0313   -0.0229 F         1 <0>        -0.1282
     21 F2          3.5848   -0.6241   -0.0373 F         1 <0>        -0.1403
     22 F3          1.1540    3.4423    0.0095 F         1 <0>        -0.1471
     23 H2         -0.9591    1.9113    0.0260 H         1 <0>         0.1392
     24 H3          3.3080    1.9711   -0.0198 H         1 <0>         0.1321
     25 H4         -3.3062   -3.0778    2.1780 H         1 <0>         0.1441
     26 H5         -3.3051   -3.0510   -2.1021 H         1 <0>         0.1686
@<TRIPOS>BOND
     1    1    6 ar
     2    1    2 ar
     3    1   23 1
     4    2    3 ar
     5    2   22 1
     6    3    4 ar
     7    3   24 1
     8    4    5 ar
     9    4   21 1
    10    5    6 ar
    11    5   20 1
    12    6    7 1
    13    7    8 1
    14    8    9 2
    15    8   10 2
    16    8   11 1
    17   11   16 2
    18   11   12 1
    19   12   13 2
    20   12   25 1
    21   13   14 1
    22   13   17 1
    23   14   15 1
    24   14   16 1
    25   16   26 1
    26   17   18 2
    27   17   19 1
@<TRIPOS>MOLECULE
ZINC04533497
   37    40     0     0     0
SMALL
USER_CHARGES
(3,4-dihydroxy-5-BLAHyl-tetrahydrofuran-2-yl)methoxyphosphonic acid
@<TRIPOS>ATOM
      1 C1         -0.6563   11.7438   -6.5496 C.2       1 <0>         0.0175
      2 C2         -0.7172   12.2586   -5.3039 C.2       1 <0>        -0.0770
      3 N1         -0.3227   11.2722   -4.4389 N.pl3     1 <0>        -0.4184
      4 C3         -0.1879   11.2133   -3.0847 C.2       1 <0>         0.3249
      5 N2          0.2129   10.1411   -2.4675 N.2       1 <0>        -0.4559
      6 C4          0.5244    9.0119   -3.1177 C.2       1 <0>         0.1865
      7 C5          0.4220    8.9623   -4.5105 C.2       1 <0>         0.0611
      8 C6         -0.0292   10.1682   -5.2045 C.2       1 <0>         0.2971
      9 N3         -0.2370   10.4753   -6.4679 N.2       1 <0>        -0.4700
     10 N4          0.7917    7.7236   -4.8993 N.2       1 <0>        -0.4629
     11 C7          1.1161    7.0198   -3.8512 C.2       1 <0>         0.2993
     12 N5          0.9612    7.7708   -2.7268 N.pl3     1 <0>        -0.4211
     13 C8          1.2195    7.3362   -1.3518 C.3       1 <0>         0.2991
     14 H1          0.4840    7.7685   -0.6735 H         1 <0>         0.1191
     15 C9          2.6483    7.7354   -0.9210 C.3       1 <0>         0.0355
     16 H2          2.6279    8.6545   -0.3355 H         1 <0>         0.0847
     17 C10         3.1233    6.5499   -0.0514 C.3       1 <0>         0.0450
     18 H3          3.3392    6.8810    0.9643 H         1 <0>         0.0867
     19 C11         1.9253    5.5746   -0.0597 C.3       1 <0>         0.0866
     20 H4          1.2991    5.7355    0.8178 H         1 <0>         0.0984
     21 O1          1.1972    5.8947   -1.2652 O.3       1 <0>        -0.3340
     22 C12         2.4176    4.1267   -0.1033 C.3       1 <0>         0.1486
     23 O2          1.3018    3.2407    0.0070 O.3       1 <0>        -0.7580
     24 P1          1.4507    1.6376   -0.0030 P.3       1 <0>         2.1341
     25 O3          2.1794    1.2174   -1.2207 O.2       1 <0>        -1.1632
     26 O4          4.2748    5.9334   -0.6312 O.3       1 <0>        -0.5202
     27 O5          3.4938    7.8893   -2.0627 O.3       1 <0>        -0.5319
     28 H5         -0.9045   12.2679   -7.4608 H         1 <0>         0.1824
     29 H6         -1.0200   13.2607   -5.0385 H         1 <0>         0.1878
     30 H7         -0.4233   12.0909   -2.5009 H         1 <0>         0.2114
     31 H8          1.4540    5.9942   -3.8718 H         1 <0>         0.2324
     32 H9          3.1042    3.9512    0.7249 H         1 <0>         0.0550
     33 H10         2.9328    3.9463   -1.0468 H         1 <0>         0.0562
     34 H11         5.0569    6.5018   -0.6516 H         1 <0>         0.3670
     35 H12         4.4162    8.0823   -1.8459 H         1 <0>         0.3771
     36 O6         -0.0110    0.9628    0.0073 O.3       1 <0>        -1.1796
     37 O7          2.2685    1.1664    1.3013 O.3       1 <0>        -1.2014
@<TRIPOS>BOND
     1    1    9 1
     2    1    2 2
     3    1   28 1
     4    2    3 1
     5    2   29 1
     6    3    8 1
     7    3    4 1
     8    4    5 2
     9    4   30 1
    10    5    6 1
    11    6   12 1
    12    6    7 2
    13    7    8 1
    14    7   10 1
    15    8    9 2
    16   10   11 2
    17   11   12 1
    18   11   31 1
    19   12   13 1
    20   13   14 1
    21   13   21 1
    22   13   15 1
    23   15   16 1
    24   15   17 1
    25   15   27 1
    26   17   18 1
    27   17   19 1
    28   17   26 1
    29   19   20 1
    30   19   21 1
    31   19   22 1
    32   22   23 1
    33   22   32 1
    34   22   33 1
    35   23   24 1
    36   24   25 2
    37   24   36 1
    38   24   37 1
    39   26   34 1
    40   27   35 1
@<TRIPOS>MOLECULE
ZINC03861759
   32    33     0     0     0
SMALL
USER_CHARGES

@<TRIPOS>ATOM
      1 C1         -2.4254    0.9199    0.0186 C.2       1 <0>        -0.2973
      2 C2         -3.5929    1.6058    0.0283 C.2       1 <0>         0.2010
      3 N1         -3.5653    2.9681    0.0360 N.am      1 <0>        -0.5200
      4 C3         -2.3905    3.6243    0.0336 C.2       1 <0>         0.6415
      5 O1         -2.3846    4.8442    0.0406 O.2       1 <0>        -0.4928
      6 N2         -1.2340    2.9637    0.0296 N.2       1 <0>        -0.5957
      7 C4         -1.2116    1.6374    0.0167 C.2       1 <0>         0.4490
      8 N3         -0.0111    0.9658    0.0074 N.pl3     1 <0>        -0.7523
      9 C5         -4.8212    3.7224    0.0466 C.3       1 <0>         0.2781
     10 H1         -5.6700    3.0460   -0.0546 H         1 <0>         0.1066
     11 C6         -4.9426    4.5466    1.3475 C.3       1 <0>        -0.1845
     12 C7         -5.6130    5.8647    0.8935 C.3       1 <0>         0.0804
     13 H2         -4.9604    6.7158    1.0883 H         1 <0>         0.0850
     14 C8         -5.8194    5.6774   -0.6259 C.3       1 <0>         0.0917
     15 H3         -6.8223    5.3029   -0.8310 H         1 <0>         0.0883
     16 O2         -4.8288    4.7012   -1.0153 O.3       1 <0>        -0.3279
     17 C9         -5.5841    6.9978   -1.3622 C.3       1 <0>         0.1407
     18 O3         -5.8214    6.8131   -2.7592 O.3       1 <0>        -0.7531
     19 P1         -5.6675    7.9975   -3.8388 P.3       1 <0>         2.1343
     20 O4         -4.3140    8.5869   -3.7350 O.2       1 <0>        -1.1643
     21 O5         -6.8694    6.0377    1.5519 O.3       1 <0>        -0.5522
     22 H4         -2.4240   -0.1601    0.0127 H         1 <0>         0.1578
     23 H5         -4.5356    1.0789    0.0303 H         1 <0>         0.1757
     24 H6          0.0554    0.3907    0.8228 H         1 <0>         0.3648
     25 H7          0.8223    1.4622    0.0021 H         1 <0>         0.3727
     26 H8         -5.5696    4.0269    2.0719 H         1 <0>         0.0884
     27 H9         -3.9564    4.7450    1.7673 H         1 <0>         0.0905
     28 H10        -6.2649    7.7559   -0.9751 H         1 <0>         0.0544
     29 H11        -4.5547    7.3212   -1.2082 H         1 <0>         0.0471
     30 H12        -6.7986    6.1596    2.5086 H         1 <0>         0.3737
     31 O6         -5.8825    7.4045   -5.3202 O.3       1 <0>        -1.1805
     32 O7         -6.7712    9.1335   -3.5502 O.3       1 <0>        -1.2013
@<TRIPOS>BOND
     1    1    7 1
     2    1    2 2
     3    1   22 1
     4    2    3 1
     5    2   23 1
     6    3    4 am
     7    3    9 1
     8    4    5 2
     9    4    6 1
    10    6    7 2
    11    7    8 1
    12    8   24 1
    13    8   25 1
    14    9   10 1
    15    9   16 1
    16    9   11 1
    17   11   12 1
    18   11   26 1
    19   11   27 1
    20   12   13 1
    21   12   14 1
    22   12   21 1
    23   14   15 1
    24   14   16 1
    25   14   17 1
    26   17   18 1
    27   17   28 1
    28   17   29 1
    29   18   19 1
    30   19   20 2
    31   19   31 1
    32   19   32 1
    33   21   30 1
@<TRIPOS>MOLECULE
ZINC20214978
   28    29     0     0     0
SMALL
USER_CHARGES

@<TRIPOS>ATOM
      1 C1         -0.0166    1.3745    0.0096 C.2       1 <0>        -0.1317
      2 C2          1.3142    1.8035   -0.0008 C.2       1 <0>        -0.1938
      3 C3          2.1052    0.7039   -0.0143 C.2       1 <0>         0.0189
      4 N1          1.3201   -0.4008   -0.0127 N.2       1 <0>        -0.4922
      5 C4          0.0021   -0.0041    0.0020 C.2       1 <0>        -0.0698
      6 C5         -1.1691   -0.8871    0.0089 C.2       1 <0>         0.6250
      7 O1         -2.2894   -0.4118    0.0225 O.2       1 <0>        -0.5536
      8 N2         -1.0046   -2.2247    0.0001 N.am      1 <0>        -0.5835
      9 C6          0.2892   -2.9312   -0.0101 C.3       1 <0>         0.0882
     10 C7         -0.0147   -4.3241    0.5959 C.3       1 <0>         0.0808
     11 H1         -0.0417   -4.2790    1.6847 H         1 <0>         0.0653
     12 C8         -1.4242   -4.6151    0.0163 C.3       1 <0>        -0.0932
     13 C9         -2.0858   -3.2210    0.0055 C.3       1 <0>         0.0680
     14 H2         -2.7023   -3.0943    0.8954 H         1 <0>         0.0636
     15 C10        -2.9306   -3.0672   -1.2330 C.2       1 <0>         0.4982
     16 O2         -2.5747   -2.3152   -2.1242 O.co2     1 <0>        -0.6711
     17 O3         -3.9700   -3.6948   -1.3436 O.co2     1 <0>        -0.7137
     18 O4          0.9340   -5.2950    0.1496 O.3       1 <0>        -0.5611
     19 N3          1.7766    3.2095    0.0019 N.pl3     1 <0>         0.0957
     20 O5          0.9709    4.1108    0.0140 O.2       1 <0>        -0.2418
     21 O6          2.9600    3.4567   -0.0080 O.3       1 <0>        -0.2452
     22 H3         -0.8938    2.0043    0.0253 H         1 <0>         0.1206
     23 H4          3.1851    0.7071   -0.0249 H         1 <0>         0.1431
     24 H5          0.6574   -3.0338   -1.0309 H         1 <0>         0.0619
     25 H6          1.0161   -2.4005    0.6047 H         1 <0>         0.0986
     26 H7         -1.3501   -5.0187   -0.9935 H         1 <0>         0.0775
     27 H8         -1.9751   -5.2958    0.6654 H         1 <0>         0.0730
     28 H9          1.8459   -5.1008    0.4062 H         1 <0>         0.3723
@<TRIPOS>BOND
     1    1    5 2
     2    1    2 1
     3    1   22 1
     4    2    3 2
     5    2   19 1
     6    3    4 1
     7    3   23 1
     8    4    5 1
     9    5    6 1
    10    6    7 2
    11    6    8 am
    12    8   13 1
    13    8    9 1
    14    9   10 1
    15    9   24 1
    16    9   25 1
    17   10   11 1
    18   10   12 1
    19   10   18 1
    20   12   13 1
    21   12   26 1
    22   12   27 1
    23   13   14 1
    24   13   15 1
    25   15   16 2
    26   15   17 1
    27   18   28 1
    28   19   20 2
    29   19   21 1
@<TRIPOS>MOLECULE
ZINC38019643
   29    29     0     0     0
SMALL
USER_CHARGES

@<TRIPOS>ATOM
      1 C1         -0.5200    1.1600    0.2879 C.3       1 <0>        -0.1422
      2 C2         -0.1827   -0.3302    0.2087 C.3       1 <0>        -0.1400
      3 C3          0.4736   -0.6336   -1.1397 C.3       1 <0>         0.1279
      4 N1          0.7966   -2.0606   -1.2156 N.am      1 <0>        -0.5777
      5 C4         -0.1833   -3.0056   -1.7570 C.3       1 <0>         0.0505
      6 C5          0.0981   -3.2384   -3.2191 C.2       1 <0>         0.5106
      7 O1          1.0306   -2.6678   -3.7588 O.co2     1 <0>        -0.6970
      8 O2         -0.6068   -3.9973   -3.8622 O.co2     1 <0>        -0.7181
      9 C6          1.9951   -2.5039   -0.7873 C.2       1 <0>         0.6152
     10 O3          2.7717   -1.7359   -0.2507 O.2       1 <0>        -0.5941
     11 C7          2.3634   -3.9122   -0.9679 C.2       1 <0>        -0.0754
     12 C8          3.5000   -4.5256   -0.4856 C.2       1 <0>        -0.1414
     13 C9          3.4469   -5.8638   -0.8878 C.2       1 <0>        -0.1940
     14 C10         2.3041   -6.0406   -1.5932 C.2       1 <0>         0.0182
     15 N2          1.6342   -4.8635   -1.6447 N.2       1 <0>        -0.4490
     16 N3          4.4600   -6.9025   -0.5955 N.pl3     1 <0>         0.0986
     17 O4          5.4450   -6.6222    0.0472 O.2       1 <0>        -0.2522
     18 O5          4.3026   -8.0311   -0.9993 O.3       1 <0>        -0.2480
     19 H1          0.3942    1.7452    0.1890 H         1 <0>         0.0525
     20 H2         -1.2070    1.4204   -0.5173 H         1 <0>         0.0507
     21 H3         -0.9876    1.3761    1.2485 H         1 <0>         0.0468
     22 H4          0.5042   -0.5906    1.0139 H         1 <0>         0.0637
     23 H5         -1.0970   -0.9154    0.3076 H         1 <0>         0.0572
     24 H6         -0.2133   -0.3732   -1.9449 H         1 <0>         0.0640
     25 H7          1.3879   -0.0484   -1.2386 H         1 <0>         0.0701
     26 H8         -0.1127   -3.9506   -1.2184 H         1 <0>         0.1003
     27 H9         -1.1864   -2.5952   -1.6409 H         1 <0>         0.0465
     28 H10         4.2839   -4.0601    0.0935 H         1 <0>         0.1156
     29 H11         1.9780   -6.9690   -2.0383 H         1 <0>         0.1408
@<TRIPOS>BOND
     1    1    2 1
     2    1   19 1
     3    1   20 1
     4    1   21 1
     5    2    3 1
     6    2   22 1
     7    2   23 1
     8    3    4 1
     9    3   24 1
    10    3   25 1
    11    4    5 1
    12    4    9 am
    13    5    6 1
    14    5   26 1
    15    5   27 1
    16    6    7 2
    17    6    8 1
    18    9   10 2
    19    9   11 1
    20   11   15 1
    21   11   12 2
    22   12   13 1
    23   12   28 1
    24   13   14 2
    25   13   16 1
    26   14   15 1
    27   14   29 1
    28   16   17 2
    29   16   18 1
@<TRIPOS>MOLECULE
ZINC02475338
   38    40     0     0     0
SMALL
USER_CHARGES

@<TRIPOS>ATOM
      1 C1         -0.0127    1.0858    0.0080 C.3       1 <0>         0.0939
      2 N1         -0.7213    1.5711   -1.1789 N.pl3     1 <0>        -0.5097
      3 C2         -2.0787    1.7831   -1.1356 C.2       1 <0>         0.3012
      4 C3         -2.7188    2.2480   -2.2937 C.2       1 <0>        -0.1645
      5 C4         -1.9624    2.4765   -3.4365 C.2       1 <0>         0.5257
      6 N2         -0.6464    2.2503   -3.4118 N.2       1 <0>        -0.6313
      7 C5         -0.0405    1.8197   -2.3269 C.2       1 <0>         0.6254
      8 O1          1.2924    1.6143   -2.3572 O.3       1 <0>        -0.6887
      9 O2         -2.5551    2.9246   -4.5672 O.3       1 <0>        -0.6884
     10 N3         -4.0658    2.3713   -1.9696 N.pl3     1 <0>        -0.4285
     11 C6         -4.1956    1.9936   -0.6807 C.2       1 <0>         0.4373
     12 N4         -3.0092    1.6463   -0.1955 N.2       1 <0>        -0.5461
     13 S1         -5.6660    1.9662    0.1958 S.2       1 <0>        -0.8041
     14 C7         -5.1387    2.8250   -2.8579 C.3       1 <0>         0.1036
     15 C8         -5.7383    1.6222   -3.5892 C.3       1 <0>         0.1049
     16 H1         -6.1424    0.9188   -2.8611 H         1 <0>         0.1119
     17 C9         -6.8589    2.0960   -4.5169 C.3       1 <0>         0.0349
     18 O3         -7.4958    0.9635   -5.1116 O.3       1 <0>        -0.2975
     19 C10        -8.5207    1.2116   -5.9689 C.ar      1 <0>         0.1417
     20 C11        -8.9016    2.5184   -6.2368 C.ar      1 <0>        -0.2122
     21 C12        -9.9434    2.7680   -7.1091 C.ar      1 <0>        -0.0806
     22 C13       -10.6066    1.7166   -7.7145 C.ar      1 <0>        -0.1723
     23 C14       -10.2292    0.4133   -7.4488 C.ar      1 <0>        -0.0837
     24 C15        -9.1840    0.1586   -6.5821 C.ar      1 <0>        -0.1573
     25 O4         -4.7219    0.9784   -4.3602 O.3       1 <0>        -0.5437
     26 H2          0.0021   -0.0041    0.0020 H         1 <0>         0.0470
     27 H3          1.0099    1.4631    0.0003 H         1 <0>         0.0767
     28 H4         -0.5229    1.4373    0.9048 H         1 <0>         0.0670
     29 H5         -5.9140    3.3161   -2.2698 H         1 <0>         0.0978
     30 H6         -4.7346    3.5284   -3.5860 H         1 <0>         0.0945
     31 H7         -7.5904    2.6642   -3.9423 H         1 <0>         0.0726
     32 H8         -6.4398    2.7294   -5.2988 H         1 <0>         0.0679
     33 H9         -8.3843    3.3399   -5.7636 H         1 <0>         0.1295
     34 H10       -10.2403    3.7851   -7.3180 H         1 <0>         0.1207
     35 H11       -11.4210    1.9138   -8.3959 H         1 <0>         0.1175
     36 H12       -10.7490   -0.4062   -7.9227 H         1 <0>         0.1238
     37 H13        -8.8867   -0.8594   -6.3783 H         1 <0>         0.1295
     38 H14        -4.3169    1.5465   -5.0297 H         1 <0>         0.3833
@<TRIPOS>BOND
     1    1   26 1
     2    1   27 1
     3    1   28 1
     4    1    2 1
     5    2    3 1
     6    2    7 1
     7    3   12 2
     8    3    4 1
     9    4    5 2
    10    4   10 1
    11    5    6 1
    12    5    9 1
    13    6    7 2
    14    7    8 1
    15   10   11 1
    16   10   14 1
    17   11   12 1
    18   11   13 2
    19   14   15 1
    20   14   29 1
    21   14   30 1
    22   15   16 1
    23   15   17 1
    24   15   25 1
    25   17   18 1
    26   17   31 1
    27   17   32 1
    28   18   19 1
    29   19   24 ar
    30   19   20 ar
    31   20   21 ar
    32   20   33 1
    33   21   22 ar
    34   21   34 1
    35   22   23 ar
    36   22   35 1
    37   23   24 ar
    38   23   36 1
    39   24   37 1
    40   25   38 1
@<TRIPOS>MOLECULE
ZINC66046104
   34    37     0     0     0
SMALL
USER_CHARGES

@<TRIPOS>ATOM
      1 C1         -0.0162    1.3470    0.0094 C.2       1 <0>        -0.2107
      2 C2          1.3196    1.7786   -0.0010 C.2       1 <0>        -0.1848
      3 C3          2.0961    0.6533   -0.0144 C.2       1 <0>         0.0344
      4 O1          1.2770   -0.4184   -0.0124 O.3       1 <0>        -0.1730
      5 C4          0.0021   -0.0041    0.0020 C.2       1 <0>        -0.0426
      6 C5          3.5601    0.6178   -0.0294 C.2       1 <0>         0.1630
      7 C6          4.2760    1.8074   -0.0249 C.2       1 <0>        -0.1552
      8 C7          5.6610    1.7795   -0.0389 C.2       1 <0>        -0.0584
      9 C8          6.3184    0.5443   -0.0575 C.2       1 <0>        -0.0829
     10 C9          5.5532   -0.6489   -0.0615 C.2       1 <0>         0.5094
     11 O2          6.1135   -1.7313   -0.0776 O.2       1 <0>        -0.4772
     12 N1          4.2083   -0.5883   -0.0419 N.am      1 <0>        -0.6136
     13 H1          3.6919   -1.4094   -0.0408 H         1 <0>         0.4029
     14 C10         7.7834    0.4850   -0.0731 C.2       1 <0>         0.3907
     15 O3          8.5063    1.6275   -0.0696 O.3       1 <0>        -0.7254
     16 N2          8.3953   -0.6816   -0.0906 N.2       1 <0>        -0.5609
     17 C11         9.7460   -0.7363   -0.1050 C.2       1 <0>         0.3641
     18 N3         10.4803   -1.8344   -0.1230 N.2       1 <0>        -0.6077
     19 C12        11.7796   -1.5071   -0.1333 C.2       1 <0>         0.1287
     20 N4         11.8941   -0.1958   -0.1219 N.2       1 <0>        -0.4025
     21 N5         10.5926    0.3312   -0.1094 N.2       1 <0>        -0.3845
     22 C13        12.9051   -2.4657   -0.1533 C.2       1 <0>         0.0738
     23 C14        14.2511   -2.2158   -0.1590 C.2       1 <0>        -0.2338
     24 C15        15.1227   -3.2826   -0.1783 C.2       1 <0>        -0.1205
     25 C16        14.6231   -4.5449   -0.1909 C.2       1 <0>        -0.2637
     26 S1         12.8625   -4.2505   -0.1682 S.3       1 <0>         0.0296
     27 H2         -0.8937    1.9765    0.0252 H         1 <0>         0.1495
     28 H3          1.6667    2.8013    0.0009 H         1 <0>         0.1565
     29 H4         -0.8673   -0.6448    0.0069 H         1 <0>         0.2022
     30 H5          3.7541    2.7528   -0.0108 H         1 <0>         0.1387
     31 H6          6.2264    2.6997   -0.0359 H         1 <0>         0.1454
     32 H7         14.6226   -1.2018   -0.1490 H         1 <0>         0.1282
     33 H8         16.1899   -3.1168   -0.1836 H         1 <0>         0.1135
     34 H9         15.1541   -5.4852   -0.2063 H         1 <0>         0.1667
@<TRIPOS>BOND
     1    1    5 2
     2    1    2 1
     3    1   27 1
     4    2    3 2
     5    2   28 1
     6    3    4 1
     7    3    6 1
     8    4    5 1
     9    5   29 1
    10    6   12 1
    11    6    7 2
    12    7    8 1
    13    7   30 1
    14    8    9 2
    15    8   31 1
    16    9   10 1
    17    9   14 1
    18   10   11 2
    19   10   12 am
    20   12   13 1
    21   14   15 1
    22   14   16 2
    23   16   17 1
    24   17   18 2
    25   17   21 1
    26   18   19 1
    27   19   22 1
    28   19   20 2
    29   20   21 1
    30   22   26 1
    31   22   23 2
    32   23   24 1
    33   23   32 1
    34   24   25 2
    35   24   33 1
    36   25   26 1
    37   25   34 1
@<TRIPOS>MOLECULE
ZINC05220316
   26    26     0     0     0
SMALL
USER_CHARGES
3,4-dihydroxy-5-(1,2,3-trihydroxypropyl)tetrahydrofuran-2-one
@<TRIPOS>ATOM
      1 C1          1.3102    1.5483    2.4965 C.3       1 <0>         0.0469
      2 C2          2.0636    1.1140    1.2377 C.3       1 <0>         0.0757
      3 H1          2.1644    0.0287    1.2309 H         1 <0>         0.1067
      4 C3          1.2864    1.5618   -0.0018 C.3       1 <0>         0.0968
      5 H2          1.1856    2.6471    0.0050 H         1 <0>         0.1173
      6 C4          2.0397    1.1274   -1.2607 C.3       1 <0>         0.0677
      7 H3          2.1692    0.0451   -1.2641 H         1 <0>         0.1118
      8 C5          1.2676    1.5723   -2.5199 C.3       1 <0>         0.0913
      9 H4          1.0116    0.7122   -3.1386 H         1 <0>         0.1017
     10 C6          2.2782    2.4896   -3.2446 C.3       1 <0>         0.0081
     11 H5          2.0298    3.5383   -3.0818 H         1 <0>         0.1169
     12 C7          3.6032    2.1463   -2.5885 C.2       1 <0>         0.4583
     13 O1          4.6933    2.1883   -3.1080 O.2       1 <0>        -0.4261
     14 O2          3.3362    1.7872   -1.3199 O.3       1 <0>        -0.3190
     15 O3          2.3164    2.1913   -4.6416 O.3       1 <0>        -0.5387
     16 O4          0.0921    2.3009   -2.1602 O.3       1 <0>        -0.5270
     17 O5         -0.0110    0.9628    0.0073 O.3       1 <0>        -0.5217
     18 O6          3.3610    1.7129    1.2285 O.3       1 <0>        -0.5314
     19 O7          1.9738    1.0305    3.6513 O.3       1 <0>        -0.5656
     20 H6          1.2868    2.6369    2.5485 H         1 <0>         0.0491
     21 H7          0.2907    1.1643    2.4605 H         1 <0>         0.0642
     22 H8          2.9352    2.7388   -5.1439 H         1 <0>         0.3962
     23 H9         -0.4297    2.6037   -2.9159 H         1 <0>         0.3894
     24 H10         0.0021   -0.0041    0.0020 H         1 <0>         0.3755
     25 H11         3.3479    2.6798    1.2338 H         1 <0>         0.3742
     26 H12         1.5501    1.2672    4.4876 H         1 <0>         0.3816
@<TRIPOS>BOND
     1    1    2 1
     2    1   19 1
     3    1   20 1
     4    1   21 1
     5    2    3 1
     6    2    4 1
     7    2   18 1
     8    4    5 1
     9    4    6 1
    10    4   17 1
    11    6    7 1
    12    6   14 1
    13    6    8 1
    14    8    9 1
    15    8   10 1
    16    8   16 1
    17   10   11 1
    18   10   12 1
    19   10   15 1
    20   12   13 2
    21   12   14 1
    22   15   22 1
    23   16   23 1
    24   17   24 1
    25   18   25 1
    26   19   26 1
@<TRIPOS>MOLECULE
ZINC22046644
   33    33     0     0     0
SMALL
USER_CHARGES
N-[(2R,3R,4R,5R,6R)-2,5-dihydroxy-6-(hydroxymethyl)-4-methoxy-tetrahydropyran-3-yl]acetamide
@<TRIPOS>ATOM
      1 C1         -5.8133   -0.6381    2.1586 C.3       1 <0>        -0.1701
      2 C2         -4.4240   -0.0570    2.1013 C.2       1 <0>         0.5148
      3 O1         -4.1644    0.9557    2.7162 O.2       1 <0>        -0.5244
      4 N1         -3.4699   -0.6626    1.3668 N.am      1 <0>        -0.7336
      5 C3         -2.1194   -0.0977    1.3112 C.3       1 <0>         0.1436
      6 H1         -2.2280    0.9963    1.3470 H         1 <0>         0.1205
      7 C4         -1.4345   -0.5355    0.0129 C.3       1 <0>         0.0970
      8 H2         -1.4625   -1.6284   -0.1091 H         1 <0>         0.0834
      9 C5          0.0021   -0.0041    0.0020 C.3       1 <0>         0.0738
     10 H3          0.5299   -0.2882   -0.9203 H         1 <0>         0.0732
     11 C6          0.7355   -0.5126    1.2459 C.3       1 <0>         0.0706
     12 H4          0.7516   -1.6120    1.2793 H         1 <0>         0.0729
     13 O2          0.0296   -0.0968    2.4167 O.3       1 <0>        -0.3914
     14 C7         -1.3041   -0.6026    2.5045 C.3       1 <0>         0.2754
     15 H5         -1.2410   -1.6996    2.5546 H         1 <0>         0.0448
     16 O3         -1.9066   -0.1505    3.7188 O.3       1 <0>        -0.5500
     17 C8          2.1529    0.0627    1.2734 C.3       1 <0>         0.0929
     18 O4          2.8752   -0.5023    2.3694 O.3       1 <0>        -0.5927
     19 O5         -0.0173    1.4248    0.0099 O.3       1 <0>        -0.5679
     20 O6         -2.1478   -0.0080   -1.1074 O.3       1 <0>        -0.3624
     21 C9         -2.0648   -0.8168   -2.2825 C.3       1 <0>         0.0229
     22 H6         -5.8556   -1.5485    1.5426 H         1 <0>         0.0730
     23 H7         -6.5348    0.0982    1.7748 H         1 <0>         0.0937
     24 H8         -6.0635   -0.8881    3.2002 H         1 <0>         0.0937
     25 H9         -3.7053   -1.5810    0.8091 H         1 <0>         0.4139
     26 H10        -1.4583   -0.4164    4.6875 H         1 <0>         0.4131
     27 H11         2.6660   -0.1813    0.3315 H         1 <0>         0.0603
     28 H12         2.1030    1.1552    1.3914 H         1 <0>         0.0581
     29 H13         3.9190   -0.2066    2.5510 H         1 <0>         0.4146
     30 H14         0.9277    1.9877    0.0039 H         1 <0>         0.4060
     31 H15        -2.6370   -0.3439   -3.0943 H         1 <0>         0.0937
     32 H16        -2.4815   -1.8129   -2.0722 H         1 <0>         0.0445
     33 H17        -1.0121   -0.9162   -2.5856 H         1 <0>         0.0423
@<TRIPOS>BOND
     1    1    2 1
     2    1   22 1
     3    1   23 1
     4    1   24 1
     5    2    3 2
     6    2    4 am
     7    4    5 1
     8    4   25 1
     9    5    6 1
    10    5   14 1
    11    5    7 1
    12    7    8 1
    13    7    9 1
    14    7   20 1
    15    9   10 1
    16    9   11 1
    17    9   19 1
    18   11   12 1
    19   11   13 1
    20   11   17 1
    21   13   14 1
    22   14   15 1
    23   14   16 1
    24   16   26 1
    25   17   18 1
    26   17   27 1
    27   17   28 1
    28   18   29 1
    29   19   30 1
    30   20   21 1
    31   21   31 1
    32   21   32 1
    33   21   33 1
@<TRIPOS>MOLECULE
ZINC40324486
   37    38     0     0     0
SMALL
USER_CHARGES

@<TRIPOS>ATOM
      1 C1         -0.0161    1.3392    0.0094 C.2       1 <0>         0.2812
      2 N1          1.2214    1.7652   -0.0001 N.2       1 <0>        -0.5669
      3 C2          2.0581    0.7230   -0.0137 C.2       1 <0>         0.4715
      4 N2          1.3539   -0.3840   -0.0129 N.2       1 <0>        -0.3432
      5 N3          0.0021   -0.0041    0.0020 N.pl3     1 <0>        -0.3760
      6 C3         -1.1595   -0.8967    0.0087 C.3       1 <0>         0.1178
      7 C4         -1.0729   -1.8427   -1.1611 C.2       1 <0>         0.5011
      8 O1         -0.1333   -1.7777   -1.9253 O.2       1 <0>        -0.4931
      9 N4         -2.0395   -2.7611   -1.3582 N.am      1 <0>        -0.5934
     10 C5         -3.1744   -2.8396   -0.4352 C.3       1 <0>         0.0997
     11 C6         -4.2976   -1.9256   -0.9290 C.3       1 <0>         0.0539
     12 O2         -4.7923   -2.4113   -2.1786 O.3       1 <0>        -0.5676
     13 C7         -1.9552   -3.6807   -2.4955 C.3       1 <0>         0.1591
     14 H1         -2.8114   -4.3553   -2.4876 H         1 <0>         0.1175
     15 C8         -0.6527   -4.4936   -2.4106 C.3       1 <0>        -0.1485
     16 C9         -0.3984   -5.2242   -3.7512 C.3       1 <0>        -0.5730
     17 S1         -1.2289   -4.1282   -4.9724 S.o2      1 <0>         2.3716
     18 O3         -2.2920   -4.8431   -5.5872 O.2       1 <0>        -0.9349
     19 O4         -0.2410   -3.5089   -5.7846 O.2       1 <0>        -0.9332
     20 C10        -1.9355   -2.8725   -3.8243 C.3       1 <0>        -0.5877
     21 N5          3.4520    0.7998   -0.0273 N.pl3     1 <0>        -0.8256
     22 H2         -0.8995    1.9604    0.0252 H         1 <0>         0.2193
     23 H3         -1.1738   -1.4675    0.9373 H         1 <0>         0.1184
     24 H4         -2.0722   -0.3059   -0.0686 H         1 <0>         0.1278
     25 H5         -3.5355   -3.8671   -0.3899 H         1 <0>         0.0987
     26 H6         -2.8575   -2.5217    0.5581 H         1 <0>         0.1000
     27 H7         -5.1057   -1.9153   -0.1976 H         1 <0>         0.0636
     28 H8         -3.9124   -0.9143   -1.0591 H         1 <0>         0.0476
     29 H9         -5.5082   -1.8791   -2.5519 H         1 <0>         0.3853
     30 H10         0.1799   -3.8222   -2.2008 H         1 <0>         0.1082
     31 H11        -0.7356   -5.2272   -1.6087 H         1 <0>         0.0948
     32 H12         0.6697   -5.2931   -3.9573 H         1 <0>         0.1429
     33 H13        -0.8565   -6.2133   -3.7452 H         1 <0>         0.1394
     34 H14        -2.9428   -2.5855   -4.1261 H         1 <0>         0.1465
     35 H15        -1.2862   -2.0005   -3.7457 H         1 <0>         0.1493
     36 H16         3.8901    1.6652   -0.0270 H         1 <0>         0.4142
     37 H17         3.9824   -0.0123   -0.0370 H         1 <0>         0.4137
@<TRIPOS>BOND
     1    1    5 1
     2    1    2 2
     3    1   22 1
     4    2    3 1
     5    3    4 2
     6    3   21 1
     7    4    5 1
     8    5    6 1
     9    6    7 1
    10    6   23 1
    11    6   24 1
    12    7    8 2
    13    7    9 am
    14    9   10 1
    15    9   13 1
    16   10   11 1
    17   10   25 1
    18   10   26 1
    19   11   12 1
    20   11   27 1
    21   11   28 1
    22   12   29 1
    23   13   14 1
    24   13   20 1
    25   13   15 1
    26   15   16 1
    27   15   30 1
    28   15   31 1
    29   16   17 1
    30   16   32 1
    31   16   33 1
    32   17   18 2
    33   17   19 2
    34   17   20 1
    35   20   34 1
    36   20   35 1
    37   21   36 1
    38   21   37 1
@<TRIPOS>MOLECULE
ZINC50244505
   39    40     0     0     0
SMALL
USER_CHARGES

@<TRIPOS>ATOM
      1 C1          0.1887    1.2360    0.8770 C.3       1 <0>        -0.1465
      2 C2          1.5792    1.7398    0.4360 C.3       1 <0>         0.0803
      3 N1          2.3639    0.5621    0.0375 N.am      1 <0>        -0.6274
      4 C3          1.5220   -0.6390    0.1853 C.3       1 <0>         0.1210
      5 C4          0.4559   -0.2488    1.2392 C.3       1 <0>         0.0015
      6 H1          0.8542   -0.3389    2.2498 H         1 <0>         0.1633
      7 N2         -0.7609   -1.0565    1.0812 N.4       1 <0>        -0.6247
      8 C5          3.6411    0.5781   -0.3925 C.2       1 <0>         0.7470
      9 O1          4.1792   -0.4560   -0.7382 O.2       1 <0>        -0.5928
     10 N3          4.3219    1.7403   -0.4393 N.am      1 <0>        -0.5779
     11 C6          3.7300    2.9590    0.1181 C.3       1 <0>        -0.0150
     12 C7          3.8676    2.9433    1.6187 C.2       1 <0>         0.4743
     13 O2          4.4099    2.0016    2.1714 O.co2     1 <0>        -0.6698
     14 O3          3.4366    3.8725    2.2801 O.co2     1 <0>        -0.6866
     15 C8          5.6540    1.7850   -1.0475 C.3       1 <0>         0.1627
     16 H2          5.9177    0.7930   -1.4141 H         1 <0>         0.1204
     17 C9          5.6459    2.7777   -2.2218 C.3       1 <0>        -0.1431
     18 C10         7.1198    3.0416   -2.6431 C.3       1 <0>        -0.5741
     19 S1          7.9293    3.1444   -0.9911 S.o2      1 <0>         2.3659
     20 O4          7.9544    4.5020   -0.5723 O.2       1 <0>        -0.9318
     21 O5          9.1391    2.3997   -1.0220 O.2       1 <0>        -0.9386
     22 C11         6.6884    2.2327    0.0131 C.3       1 <0>        -0.5804
     23 H3         -0.1630    1.7883    1.7485 H         1 <0>         0.1128
     24 H4         -0.5262    1.3105    0.0576 H         1 <0>         0.0953
     25 H5          1.4760    2.4200   -0.4095 H         1 <0>         0.0897
     26 H6          2.0696    2.2485    1.2660 H         1 <0>         0.1183
     27 H7          1.0451   -0.8870   -0.7629 H         1 <0>         0.0798
     28 H8          2.1185   -1.4788    0.5420 H         1 <0>         0.1034
     29 H9         -1.0880   -0.9893    0.1290 H         1 <0>         0.4322
     30 H10        -0.5557   -2.0201    1.2992 H         1 <0>         0.4379
     31 H11         4.2456    3.8306   -0.2850 H         1 <0>         0.0841
     32 H12         2.6743    3.0053   -0.1495 H         1 <0>         0.1014
     33 H13         5.0941    2.3521   -3.0599 H         1 <0>         0.1014
     34 H14         5.1790    3.7122   -1.9107 H         1 <0>         0.0927
     35 H15         7.5178    2.2111   -3.2261 H         1 <0>         0.1408
     36 H16         7.2121    3.9820   -3.1865 H         1 <0>         0.1429
     37 H17         6.2271    2.8913    0.7490 H         1 <0>         0.1538
     38 H18         7.1438    1.3689    0.4976 H         1 <0>         0.1467
     39 H19        -1.4750   -0.7149    1.7069 H         1 <0>         0.4392
@<TRIPOS>BOND
     1    1    5 1
     2    1    2 1
     3    1   23 1
     4    1   24 1
     5    2    3 1
     6    2   25 1
     7    2   26 1
     8    3    4 1
     9    3    8 am
    10    4    5 1
    11    4   27 1
    12    4   28 1
    13    5    6 1
    14    5    7 1
    15    7   29 1
    16    7   30 1
    17    7   39 1
    18    8    9 2
    19    8   10 am
    20   10   11 1
    21   10   15 1
    22   11   12 1
    23   11   31 1
    24   11   32 1
    25   12   13 2
    26   12   14 1
    27   15   16 1
    28   15   22 1
    29   15   17 1
    30   17   18 1
    31   17   33 1
    32   17   34 1
    33   18   19 1
    34   18   35 1
    35   18   36 1
    36   19   20 2
    37   19   21 2
    38   19   22 1
    39   22   37 1
    40   22   38 1
@<TRIPOS>MOLECULE
ZINC62721774
   31    30     0     0     0
SMALL
USER_CHARGES

@<TRIPOS>ATOM
      1 C1         -0.0184    1.5028    0.0103 C.3       1 <0>        -0.1734
      2 C2          0.0021   -0.0041    0.0020 C.2       1 <0>         0.5227
      3 O1          1.0605   -0.5961   -0.0113 O.2       1 <0>        -0.5247
      4 N1         -1.1558   -0.6938    0.0094 N.am      1 <0>        -0.7265
      5 C3         -1.1360   -2.1586    0.0013 C.3       1 <0>         0.3280
      6 C4         -2.1392   -2.6879    1.0281 C.3       1 <0>         0.0660
      7 H1         -2.1244   -3.7778    1.0221 H         1 <0>         0.1278
      8 C5         -1.7595   -2.1804    2.4206 C.3       1 <0>         0.0812
      9 H2         -0.7982   -2.6036    2.7120 H         1 <0>         0.1181
     10 C6         -2.8301   -2.6052    3.4277 C.3       1 <0>         0.0510
     11 O2         -2.4194   -2.2332    4.7449 O.3       1 <0>        -0.5645
     12 O3         -1.6652   -0.7547    2.3987 O.3       1 <0>        -0.5333
     13 O4         -3.4501   -2.2275    0.6944 O.3       1 <0>        -0.5477
     14 N2         -1.4995   -2.6446   -1.3321 N.am      1 <0>        -0.7342
     15 C7         -0.5498   -3.1367   -2.1520 C.2       1 <0>         0.5096
     16 O5          0.6058   -3.1772   -1.7861 O.2       1 <0>        -0.5236
     17 C8         -0.9238   -3.6366   -3.5236 C.3       1 <0>        -0.1726
     18 H3          1.0042    1.8801    0.0026 H         1 <0>         0.0918
     19 H4         -0.5455    1.8639   -0.8728 H         1 <0>         0.0847
     20 H5         -0.5286    1.8543    0.9071 H         1 <0>         0.0914
     21 H6         -2.0023   -0.2203    0.0200 H         1 <0>         0.3906
     22 H7         -0.1360   -2.5098    0.2559 H         1 <0>         0.1371
     23 H8         -3.7714   -2.1111    3.1875 H         1 <0>         0.0559
     24 H9         -2.9646   -3.6859    3.3808 H         1 <0>         0.0565
     25 H10        -3.0517   -2.4723    5.4363 H         1 <0>         0.3826
     26 H11        -2.4862   -0.3100    2.1470 H         1 <0>         0.3624
     27 H12        -3.5371   -1.2645    0.6806 H         1 <0>         0.3705
     28 H13        -2.4237   -2.6122   -1.6248 H         1 <0>         0.4030
     29 H14        -0.8591   -2.8170   -4.2392 H         1 <0>         0.0939
     30 H15        -0.2397   -4.4320   -3.8194 H         1 <0>         0.0951
     31 H16        -1.9430   -4.0225   -3.5043 H         1 <0>         0.0809
@<TRIPOS>BOND
     1    1    2 1
     2    1   18 1
     3    1   19 1
     4    1   20 1
     5    2    3 2
     6    2    4 am
     7    4    5 1
     8    4   21 1
     9    5    6 1
    10    5   14 1
    11    5   22 1
    12    6    7 1
    13    6    8 1
    14    6   13 1
    15    8    9 1
    16    8   10 1
    17    8   12 1
    18   10   11 1
    19   10   23 1
    20   10   24 1
    21   11   25 1
    22   12   26 1
    23   13   27 1
    24   14   15 am
    25   14   28 1
    26   15   16 2
    27   15   17 1
    28   17   29 1
    29   17   30 1
    30   17   31 1
@<TRIPOS>MOLECULE
ZINC21948952
   25    27     0     0     0
SMALL
USER_CHARGES
6-cyclopropyl-2-methylamino-5-sulfanyl-thiazolo[5,4-e]pyrimidin-7-one
@<TRIPOS>ATOM
      1 C1          7.7193    4.5856   -0.1591 C.3       1 <0>         0.1003
      2 N1          7.3186    3.2324   -0.5520 N.pl3     1 <0>        -0.6862
      3 C2          5.9996    2.8478   -0.4505 C.2       1 <0>         0.3943
      4 N2          4.9699    3.5523   -0.0264 N.2       1 <0>        -0.5920
      5 C3          3.7335    3.0536    0.0214 C.2       1 <0>         0.4200
      6 C4          3.6150    1.7199   -0.4154 C.2       1 <0>        -0.4294
      7 S1          5.2862    1.3151   -0.8502 S.3       1 <0>         0.0775
      8 C5          2.3965    1.0611   -0.4262 C.2       1 <0>         0.5789
      9 O1          2.3122   -0.0949   -0.8084 O.3       1 <0>        -0.5595
     10 N3          1.3003    1.7356   -0.0010 N.pl3     1 <0>        -0.5204
     11 C6          1.4336    3.0292    0.4132 C.2       1 <0>         0.5450
     12 N4          2.5818    3.6548    0.4311 N.2       1 <0>        -0.5352
     13 S2         -0.0038    3.8921    0.9554 S.2       1 <0>        -0.7443
     14 C7         -0.0127    1.0858    0.0080 C.3       1 <0>        -0.0473
     15 C8         -0.1727   -0.1950   -0.8134 C.3       1 <0>        -0.1459
     16 C9         -0.1270   -0.2662    0.7150 C.3       1 <0>        -0.1315
     17 H1          8.8023    4.7055   -0.3096 H         1 <0>         0.0793
     18 H2          7.4764    4.7465    0.9016 H         1 <0>         0.0620
     19 H3          7.1800    5.3209   -0.7743 H         1 <0>         0.0621
     20 H4          8.0709    2.5234   -0.9281 H         1 <0>         0.4457
     21 H5         -0.5223    2.0587    0.0685 H         1 <0>         0.1954
     22 H6         -1.0905   -0.1316   -1.4164 H         1 <0>         0.0946
     23 H7          0.6953   -0.3150   -1.4784 H         1 <0>         0.1403
     24 H8          0.7788   -0.4450    1.3130 H         1 <0>         0.0913
     25 H9         -1.0070   -0.2617    1.3749 H         1 <0>         0.1048
@<TRIPOS>BOND
     1    1    2 1
     2    1   17 1
     3    1   18 1
     4    1   19 1
     5    2    3 1
     6    2   20 1
     7    3    7 1
     8    3    4 2
     9    4    5 1
    10    5   12 2
    11    5    6 1
    12    6    7 1
    13    6    8 2
    14    8    9 1
    15    8   10 1
    16   10   11 1
    17   10   14 1
    18   11   12 1
    19   11   13 2
    20   14   16 1
    21   14   15 1
    22   14   21 1
    23   15   16 1
    24   15   22 1
    25   15   23 1
    26   16   24 1
    27   16   25 1
@<TRIPOS>MOLECULE
ZINC39465349
   28    30     0     0     0
SMALL
USER_CHARGES

@<TRIPOS>ATOM
      1 C1         -0.0167    1.3781    0.0096 C.ar      1 <0>        -0.1405
      2 C2          1.1704    2.0941    0.0021 C.ar      1 <0>        -0.0326
      3 C3          2.3770    1.4285   -0.0111 C.ar      1 <0>        -0.0568
      4 C4          2.3956    0.0406   -0.0182 C.ar      1 <0>        -0.0778
      5 C5          1.2149   -0.6747   -0.0114 C.ar      1 <0>        -0.0735
      6 C6          0.0021   -0.0041    0.0020 C.ar      1 <0>         0.1087
      7 F1         -1.1569   -0.6983    0.0090 F         1 <0>        -0.1279
      8 Cl1         1.2492   -2.4103   -0.0211 Cl        1 <0>        -0.0505
      9 C7          3.6941    2.1588   -0.0162 C.3       1 <0>         0.0275
     10 H1          4.1289    2.1032    0.9817 H         1 <0>         0.0725
     11 C8          4.6420    1.4727   -1.0044 C.3       1 <0>         0.1139
     12 O1          5.9353    2.1032   -0.9166 O.3       1 <0>        -0.7295
     13 P1          6.0092    3.7255   -1.0038 P.3       1 <0>         2.2960
     14 O2          5.9506    4.1840   -2.4781 O.2       1 <0>        -1.0953
     15 N1          4.6850    4.2765   -0.1813 N.pl3     1 <0>        -1.0111
     16 N2          3.5173    3.5661   -0.3742 N.3       1 <0>        -0.2625
     17 C9          2.4428    4.1797    0.4211 C.3       1 <0>         0.0292
     18 C10         1.1029    3.6000    0.0083 C.3       1 <0>        -0.0781
     19 O3          7.3059    4.2373   -0.3378 O.3       1 <0>        -1.0908
     20 H2         -0.9606    1.9027    0.0260 H         1 <0>         0.1469
     21 H3          3.3400   -0.4832   -0.0294 H         1 <0>         0.1498
     22 H4          4.7322    0.4164   -0.7513 H         1 <0>         0.0901
     23 H5          4.2525    1.5767   -2.0171 H         1 <0>         0.0712
     24 H6          4.7300    5.0567    0.3933 H         1 <0>         0.3950
     25 H7          2.5984    3.9593    1.4772 H         1 <0>         0.0419
     26 H8          2.4447    5.2587    0.2668 H         1 <0>         0.0957
     27 H9          0.8742    3.9569   -0.9959 H         1 <0>         0.0974
     28 H10         0.3214    3.9253    0.6949 H         1 <0>         0.0912
@<TRIPOS>BOND
     1    1    6 ar
     2    1    2 ar
     3    1   20 1
     4    2   18 1
     5    2    3 ar
     6    3    4 ar
     7    3    9 1
     8    4    5 ar
     9    4   21 1
    10    5    6 ar
    11    5    8 1
    12    6    7 1
    13    9   10 1
    14    9   16 1
    15    9   11 1
    16   11   12 1
    17   11   22 1
    18   11   23 1
    19   12   13 1
    20   13   14 2
    21   13   15 1
    22   13   19 1
    23   15   16 1
    24   15   24 1
    25   16   17 1
    26   17   18 1
    27   17   25 1
    28   17   26 1
    29   18   27 1
    30   18   28 1
@<TRIPOS>MOLECULE
ZINC49619159
   30    31     0     0     0
SMALL
USER_CHARGES

@<TRIPOS>ATOM
      1 C1         -0.0168    1.3910    0.0097 C.ar      1 <0>        -0.1098
      2 C2          1.1699    2.0953    0.0021 C.ar      1 <0>        -0.0648
      3 C3          2.3776    1.4219   -0.0135 C.ar      1 <0>        -0.1192
      4 C4          2.4046    0.0363   -0.0216 C.ar      1 <0>         0.1192
      5 C5          1.2227   -0.6797   -0.0142 C.ar      1 <0>        -0.1409
      6 C6          0.0021   -0.0041    0.0020 C.ar      1 <0>         0.0294
      7 C7         -1.2265   -0.7396    0.0103 C.1       1 <0>        -0.0971
      8 C8         -2.2338   -1.3427    0.0170 C.1       1 <0>        -0.1767
      9 C9         -3.4967   -2.0988    0.0255 C.3       1 <0>         0.1962
     10 O1         -3.2134   -3.4994    0.0152 O.3       1 <0>        -0.5674
     11 F1          3.5879   -0.6153   -0.0373 F         1 <0>        -0.1030
     12 C10         3.6695    2.1977   -0.0221 C.3       1 <0>         0.1788
     13 N1          4.2854    2.1355    1.3057 N.am      1 <0>        -0.4008
     14 C11         5.1504    1.1439    1.5994 C.2       1 <0>         0.4800
     15 O2          5.4224    0.2973    0.7627 O.2       1 <0>        -0.5802
     16 C12         5.7387    1.0920    2.8794 C.2       1 <0>        -0.2030
     17 C13         5.4222    2.0453    3.7963 C.2       1 <0>        -0.0890
     18 C14         4.5155    3.0666    3.4569 C.2       1 <0>         0.3573
     19 O3          4.1992    4.0187    4.3723 O.3       1 <0>        -0.7211
     20 N2          3.9785    3.1090    2.2633 N.2       1 <0>        -0.3847
     21 H1         -0.9589    1.9190    0.0260 H         1 <0>         0.1322
     22 H2          1.1554    3.1752    0.0081 H         1 <0>         0.1426
     23 H3          1.2438   -1.7594   -0.0213 H         1 <0>         0.1353
     24 H4         -4.0635   -1.8494    0.9225 H         1 <0>         0.0734
     25 H5         -4.0812   -1.8398   -0.8573 H         1 <0>         0.0740
     26 H6         -4.0013   -4.0601    0.0200 H         1 <0>         0.3866
     27 H7          4.3478    1.7657   -0.7579 H         1 <0>         0.0968
     28 H8          3.4674    3.2372   -0.2805 H         1 <0>         0.0976
     29 H9          6.4331    0.3034    3.1294 H         1 <0>         0.1361
     30 H10         5.8646    2.0185    4.7811 H         1 <0>         0.1223
@<TRIPOS>BOND
     1    1    6 ar
     2    1    2 ar
     3    1   21 1
     4    2    3 ar
     5    2   22 1
     6    3    4 ar
     7    3   12 1
     8    4    5 ar
     9    4   11 1
    10    5    6 ar
    11    5   23 1
    12    6    7 1
    13    7    8 3
    14    8    9 1
    15    9   10 1
    16    9   24 1
    17    9   25 1
    18   10   26 1
    19   12   27 1
    20   12   28 1
    21   12   13 1
    22   13   20 1
    23   13   14 am
    24   14   16 1
    25   14   15 2
    26   16   17 2
    27   16   29 1
    28   17   18 1
    29   17   30 1
    30   18   20 2
    31   18   19 1
@<TRIPOS>MOLECULE
ZINC61095019
   26    27     0     0     0
SMALL
USER_CHARGES

@<TRIPOS>ATOM
      1 C1         -0.0169    1.3977    0.0097 C.2       1 <0>         0.0589
      2 C2          1.1638    2.0807    0.0021 C.2       1 <0>        -0.2619
      3 C3          2.3727    1.3642   -0.0133 C.2       1 <0>         0.5245
      4 O1          3.4365    1.9628   -0.0198 O.2       1 <0>        -0.5550
      5 N1          2.3580    0.0177   -0.0204 N.am      1 <0>        -0.6061
      6 H1          3.1959   -0.4709   -0.0307 H         1 <0>         0.4172
      7 C4          1.1838   -0.6637   -0.0128 C.2       1 <0>         0.2431
      8 C5          0.0021   -0.0041    0.0020 C.2       1 <0>        -0.7206
      9 S1         -1.5113   -0.9064    0.0110 S.o2      1 <0>         2.6224
     10 O2         -1.1692   -2.2712    0.2103 O.2       1 <0>        -1.0243
     11 O3         -2.3953   -0.2083    0.8773 O.2       1 <0>        -1.0152
     12 N2         -2.1555   -0.7973   -1.5106 N.2       1 <0>        -1.0717
     13 C6         -3.3718   -1.4258   -1.8025 C.ar      1 <0>         0.2730
     14 C7         -4.0414   -2.1359   -0.8157 C.ar      1 <0>        -0.2611
     15 C8         -5.2433   -2.7563   -1.1062 C.ar      1 <0>         0.1200
     16 C9         -5.7788   -2.6690   -2.3822 C.ar      1 <0>        -0.0211
     17 C10        -5.1122   -1.9617   -3.3677 C.ar      1 <0>        -0.1178
     18 C11        -3.9135   -1.3348   -3.0797 C.ar      1 <0>         0.0530
     19 F1         -3.2663   -0.6395   -4.0404 F         1 <0>        -0.1315
     20 F2         -6.9527   -3.2756   -2.6641 F         1 <0>        -0.1446
     21 F3         -5.8953   -3.4480   -0.1463 F         1 <0>        -0.1385
     22 H2         -0.9560    1.9309    0.0260 H         1 <0>         0.1470
     23 H3          1.1695    3.1606    0.0075 H         1 <0>         0.1530
     24 H4          1.1928   -1.7437   -0.0191 H         1 <0>         0.1859
     25 H5         -3.6244   -2.2044    0.1782 H         1 <0>         0.1286
     26 H6         -5.5309   -1.8952   -4.3611 H         1 <0>         0.1427
@<TRIPOS>BOND
     1    1    8 1
     2    1    2 2
     3    1   22 1
     4    2    3 1
     5    2   23 1
     6    3    4 2
     7    3    5 am
     8    5    6 1
     9    5    7 1
    10    7    8 2
    11    7   24 1
    12    8    9 1
    13    9   10 2
    14    9   11 2
    15    9   12 1
    16   12   13 1
    17   13   18 ar
    18   13   14 ar
    19   14   15 ar
    20   14   25 1
    21   15   16 ar
    22   15   21 1
    23   16   17 ar
    24   16   20 1
    25   17   18 ar
    26   17   26 1
    27   18   19 1
@<TRIPOS>MOLECULE
ZINC58356634
   26    27     0     0     0
SMALL
USER_CHARGES

@<TRIPOS>ATOM
      1 C1         -0.0163    1.3480    0.0095 C.2       1 <0>        -0.1340
      2 C2          1.1882    2.0666    0.0018 C.2       1 <0>        -0.2051
      3 C3          2.3734    1.3840   -0.0132 C.2       1 <0>         0.1857
      4 C4          2.3551   -0.0281   -0.0206 C.2       1 <0>         0.4620
      5 N1          1.1795   -0.6850   -0.0129 N.am      1 <0>        -0.5956
      6 C5          0.0021   -0.0041    0.0020 C.2       1 <0>        -0.0215
      7 O1          3.4039   -0.6527   -0.0344 O.2       1 <0>        -0.5568
      8 N2          3.5903    2.0771   -0.0216 N.2       1 <0>        -1.0749
      9 S1          5.0194    1.2407   -0.0397 S.o2      1 <0>         2.6325
     10 O2          5.1038    0.5538    1.2014 O.2       1 <0>        -1.0158
     11 O3          5.0795    0.5664   -1.2891 O.2       1 <0>        -1.0158
     12 C6          6.3192    2.4302   -0.0464 C.ar      1 <0>        -0.6259
     13 C7          6.8133    2.9070   -1.2462 C.ar      1 <0>        -0.0131
     14 C8          7.8329    3.8401   -1.2521 C.ar      1 <0>        -0.1376
     15 C9          8.3590    4.2970   -0.0568 C.ar      1 <0>        -0.0010
     16 C10         7.8640    3.8196    1.1437 C.ar      1 <0>        -0.1377
     17 C11         6.8405    2.8907    1.1483 C.ar      1 <0>        -0.0132
     18 Cl1         9.6400    5.4687   -0.0634 Cl        1 <0>        -0.0774
     19 H1         -0.9589    1.8748    0.0258 H         1 <0>         0.1232
     20 H2          1.1799    3.1465    0.0074 H         1 <0>         0.1179
     21 H3         -0.9297   -0.5501    0.0080 H         1 <0>         0.1399
     22 H4          6.4029    2.5499   -2.1792 H         1 <0>         0.1454
     23 H5          8.2191    4.2122   -2.1895 H         1 <0>         0.1363
     24 H6          8.2745    4.1757    2.0770 H         1 <0>         0.1363
     25 H7          6.4508    2.5214    2.0854 H         1 <0>         0.1454
     26 H8          1.1722   -1.6550   -0.0181 H         1 <0>         0.4008
@<TRIPOS>BOND
     1    1    6 2
     2    1    2 1
     3    1   19 1
     4    2    3 2
     5    2   20 1
     6    3    4 1
     7    3    8 1
     8    4    5 am
     9    4    7 2
    10    5    6 1
    11    5   26 1
    12    6   21 1
    13    8    9 1
    14    9   10 2
    15    9   11 2
    16    9   12 1
    17   12   17 ar
    18   12   13 ar
    19   13   14 ar
    20   13   22 1
    21   14   15 ar
    22   14   23 1
    23   15   16 ar
    24   15   18 1
    25   16   17 ar
    26   16   24 1
    27   17   25 1
@<TRIPOS>MOLECULE
ZINC36242285
   28    29     0     0     0
SMALL
USER_CHARGES

@<TRIPOS>ATOM
      1 C1         -0.0178    1.4608    0.0101 C.3       1 <0>         0.0983
      2 N1          0.0021   -0.0041    0.0020 N.pl3     1 <0>        -0.6413
      3 C2          1.2806   -0.7192   -0.0140 C.3       1 <0>         0.0946
      4 C3         -1.1969   -0.7183    0.0096 C.ar      1 <0>         0.2079
      5 C4         -1.1763   -2.1086    0.0077 C.ar      1 <0>        -0.1978
      6 C5         -2.3585   -2.8166    0.0152 C.ar      1 <0>        -0.0406
      7 C6         -3.5779   -2.1365    0.0247 C.ar      1 <0>        -0.0402
      8 C7         -3.5952   -0.7403    0.0267 C.ar      1 <0>        -0.0517
      9 C8         -2.4096   -0.0380    0.0249 C.ar      1 <0>        -0.1954
     10 C9         -4.8477   -2.8928    0.0323 C.2       1 <0>         0.1941
     11 N2         -4.9974   -4.1691   -0.2364 N.2       1 <0>        -0.2863
     12 N3         -6.2359   -4.4966   -0.1351 N.2       1 <0>        -0.3299
     13 C10        -6.9533   -3.4498    0.2046 C.2       1 <0>         0.3399
     14 N4         -6.0951   -2.3936    0.3281 N.pl3     1 <0>        -0.3375
     15 N5         -6.4103   -1.1097    0.6717 N.3       1 <0>        -0.5804
     16 S1         -8.6964   -3.4155    0.4597 S.3       1 <0>        -0.8116
     17 H1          1.0048    1.8381    0.0023 H         1 <0>         0.0686
     18 H2         -0.5450    1.8219   -0.8730 H         1 <0>         0.0521
     19 H3         -0.5280    1.8123    0.9069 H         1 <0>         0.0525
     20 H4          1.6074   -0.9021    1.0096 H         1 <0>         0.0451
     21 H5          1.1583   -1.6705   -0.5318 H         1 <0>         0.0692
     22 H6          2.0272   -0.1171   -0.5318 H         1 <0>         0.0622
     23 H7         -0.2328   -2.6341   -0.0000 H         1 <0>         0.1228
     24 H8         -2.3418   -3.8965    0.0133 H         1 <0>         0.1317
     25 H9         -4.5368   -0.2113    0.0341 H         1 <0>         0.1344
     26 H10        -2.4223    1.0419    0.0311 H         1 <0>         0.1197
     27 H11        -6.6248   -0.5588   -0.1460 H         1 <0>         0.3452
     28 H12        -7.1730   -1.0889    1.3319 H         1 <0>         0.3744
@<TRIPOS>BOND
     1    1    2 1
     2    1   17 1
     3    1   18 1
     4    1   19 1
     5    2    3 1
     6    2    4 1
     7    3   20 1
     8    3   21 1
     9    3   22 1
    10    4    9 ar
    11    4    5 ar
    12    5    6 ar
    13    5   23 1
    14    6    7 ar
    15    6   24 1
    16    7    8 ar
    17    7   10 1
    18    8    9 ar
    19    8   25 1
    20    9   26 1
    21   10   14 1
    22   10   11 2
    23   11   12 1
    24   12   13 2
    25   13   14 1
    26   13   16 1
    27   14   15 1
    28   15   27 1
    29   15   28 1
@<TRIPOS>MOLECULE
ZINC06557404
   22    23     0     0     0
SMALL
USER_CHARGES

@<TRIPOS>ATOM
      1 C1         -0.0167    1.3782    0.0096 C.ar      1 <0>        -0.1162
      2 C2          1.1706    2.0858    0.0021 C.ar      1 <0>        -0.1161
      3 C3          2.3780    1.4104   -0.0130 C.ar      1 <0>        -0.0458
      4 C4          2.3961    0.0270   -0.0206 C.ar      1 <0>        -0.1128
      5 C5          1.2082   -0.6795   -0.0130 C.ar      1 <0>        -0.0749
      6 C6          0.0021   -0.0041    0.0020 C.ar      1 <0>        -0.0411
      7 C7         -1.2928   -0.7750    0.0107 C.3       1 <0>         0.1053
      8 H1         -2.0966   -0.1286   -0.3418 H         1 <0>         0.0874
      9 C8         -1.5931   -1.2151    1.4071 C.2       1 <0>         0.4506
     10 N1         -1.6954   -2.4818    1.5918 N.2       1 <0>        -0.9710
     11 S1         -1.4427   -3.2301    0.1248 S.o2      1 <0>         2.5588
     12 O1         -0.2229   -3.9526    0.2220 O.2       1 <0>        -1.0469
     13 O2         -2.6717   -3.8289   -0.2630 O.2       1 <0>        -1.0463
     14 N2         -1.1726   -1.9328   -0.8904 N.2       1 <0>        -1.0558
     15 N3         -1.7497   -0.3187    2.4312 N.pl3     1 <0>        -0.8186
     16 Cl1         3.8696    2.2984   -0.0231 Cl        1 <0>        -0.0902
     17 H2         -0.9592    1.9053    0.0259 H         1 <0>         0.1285
     18 H3          1.1558    3.1656    0.0076 H         1 <0>         0.1266
     19 H4          3.3383   -0.5007   -0.0327 H         1 <0>         0.1279
     20 H5          1.2222   -1.7594   -0.0193 H         1 <0>         0.1409
     21 H6         -1.6661    0.6325    2.2603 H         1 <0>         0.4037
     22 H7         -1.9442   -0.6352    3.3273 H         1 <0>         0.4058
@<TRIPOS>BOND
     1    1    6 ar
     2    1    2 ar
     3    1   17 1
     4    2    3 ar
     5    2   18 1
     6    3    4 ar
     7    3   16 1
     8    4    5 ar
     9    4   19 1
    10    5    6 ar
    11    5   20 1
    12    6    7 1
    13    7    8 1
    14    7   14 1
    15    7    9 1
    16    9   10 2
    17    9   15 1
    18   10   11 1
    19   11   12 2
    20   11   13 2
    21   11   14 1
    22   15   21 1
    23   15   22 1
@<TRIPOS>MOLECULE
ZINC05819062
   30    32     0     0     0
SMALL
USER_CHARGES

@<TRIPOS>ATOM
      1 C1         -0.0168    1.3886    0.0097 C.ar      1 <0>        -0.1692
      2 C2          1.1541    2.0930    0.0023 C.ar      1 <0>        -0.0139
      3 C3          2.3705    1.4118   -0.0140 C.ar      1 <0>        -0.2179
      4 C4          2.4022    0.0061   -0.0286 C.ar      1 <0>         0.1536
      5 C5          1.2032   -0.6938   -0.0167 C.ar      1 <0>        -0.1668
      6 C6          0.0021   -0.0041    0.0020 C.ar      1 <0>         0.1674
      7 O1         -1.1679   -0.6921    0.0131 O.3       1 <0>        -0.4921
      8 O2          3.5770   -0.6531   -0.0610 O.3       1 <0>        -0.2128
      9 C7          4.7295   -0.0528    0.2234 C.2       1 <0>         0.1870
     10 C8          4.8593    1.3207    0.2603 C.2       1 <0>        -0.2756
     11 C9          3.6557    2.1373   -0.0137 C.2       1 <0>         0.4348
     12 O3          3.7218    3.3349   -0.2259 O.2       1 <0>        -0.4394
     13 C10         6.1468    1.9501    0.5611 C.2       1 <0>         0.2685
     14 N1          7.1987    1.2075    0.8004 N.2       1 <0>        -0.5013
     15 C11         8.3942    1.7919    1.0797 C.2       1 <0>         0.3763
     16 C12         9.5291    0.9976    1.3319 C.2       1 <0>        -0.3136
     17 C13        10.7161    1.6141    1.6090 C.2       1 <0>         0.4719
     18 O4         11.8254    0.8836    1.8555 O.3       1 <0>        -0.6537
     19 N2         10.7669    2.9801    1.6332 N.pl3     1 <0>        -0.6014
     20 H1         11.6045    3.4284    1.8288 H         1 <0>         0.4181
     21 C14         9.6611    3.7058    1.3865 C.2       1 <0>         0.5246
     22 S1          9.7530    5.4149    1.4221 S.2       1 <0>        -0.7080
     23 N3          8.5002    3.1211    1.1109 N.2       1 <0>        -0.5902
     24 H2         -0.9604    1.9137    0.0260 H         1 <0>         0.1430
     25 H3          1.1374    3.1728    0.0087 H         1 <0>         0.1497
     26 H4          1.2069   -1.7738   -0.0225 H         1 <0>         0.1511
     27 H5         -1.5180   -0.8867   -0.8670 H         1 <0>         0.4002
     28 H6          5.5956   -0.6628    0.4335 H         1 <0>         0.2202
     29 H7          6.2290    3.0267    0.5855 H         1 <0>         0.1439
     30 H8          9.4622   -0.0801    1.3071 H         1 <0>         0.1456
@<TRIPOS>BOND
     1    1    6 ar
     2    1    2 ar
     3    1   24 1
     4    2    3 ar
     5    2   25 1
     6    3   11 1
     7    3    4 ar
     8    4    5 ar
     9    4    8 1
    10    5    6 ar
    11    5   26 1
    12    6    7 1
    13    7   27 1
    14    8    9 1
    15    9   10 2
    16    9   28 1
    17   10   11 1
    18   10   13 1
    19   11   12 2
    20   13   14 2
    21   13   29 1
    22   14   15 1
    23   15   23 2
    24   15   16 1
    25   16   17 2
    26   16   30 1
    27   17   18 1
    28   17   19 1
    29   19   20 1
    30   19   21 1
    31   21   22 2
    32   21   23 1
@<TRIPOS>MOLECULE
ZINC61685137
   30    31     0     0     0
SMALL
USER_CHARGES

@<TRIPOS>ATOM
      1 C1         -0.0184    1.5028    0.0103 C.3       1 <0>        -0.1171
      2 C2          0.0021   -0.0041    0.0020 C.ar      1 <0>        -0.0039
      3 C3          0.0058   -0.6873   -1.1984 C.ar      1 <0>        -0.2236
      4 C4          0.0251   -2.0761   -1.2051 C.ar      1 <0>         0.3152
      5 C5          0.0406   -2.7733   -0.0035 C.ar      1 <0>        -0.7007
      6 C6          0.0368   -2.0840    1.1929 C.ar      1 <0>         0.0218
      7 C7          0.0229   -0.7010    1.1960 C.ar      1 <0>        -0.1790
      8 C8          0.0251    0.0480    2.5037 C.3       1 <0>        -0.1015
      9 S1          0.0645   -4.5351   -0.0063 S.o2      1 <0>         2.6204
     10 O1          1.0909   -4.9259   -0.9080 O.2       1 <0>        -1.0282
     11 O2          0.0498   -4.9436    1.3546 O.2       1 <0>        -1.0246
     12 N1         -1.3658   -5.0432   -0.6684 N.2       1 <0>        -1.0522
     13 C9         -1.6274   -6.4031   -0.7994 C.2       1 <0>         0.3814
     14 C10        -2.7971   -6.9766   -1.3484 C.2       1 <0>        -0.2730
     15 C11        -2.6693   -8.3139   -1.2978 C.2       1 <0>         0.0131
     16 O3         -1.4800   -8.6007   -0.7455 O.3       1 <0>        -0.1221
     17 N2         -0.8317   -7.3789   -0.4415 N.2       1 <0>        -0.4522
     18 N3          0.0284   -2.7702   -2.4172 N.pl3     1 <0>        -0.8610
     19 H1          1.0042    1.8801    0.0026 H         1 <0>         0.0713
     20 H2         -0.5455    1.8639   -0.8728 H         1 <0>         0.0652
     21 H3         -0.5286    1.8543    0.9071 H         1 <0>         0.0700
     22 H4         -0.0067   -0.1423   -2.1307 H         1 <0>         0.1214
     23 H5          0.0485   -2.6253    2.1274 H         1 <0>         0.1350
     24 H6         -1.0019    0.2146    2.8287 H         1 <0>         0.0615
     25 H7          0.5541   -0.5366    3.2564 H         1 <0>         0.0614
     26 H8          0.5247    1.0078    2.3719 H         1 <0>         0.0608
     27 H9         -3.6455   -6.4348   -1.7398 H         1 <0>         0.1405
     28 H10        -3.3979   -9.0331   -1.6418 H         1 <0>         0.1906
     29 H11         0.0172   -2.2823   -3.2555 H         1 <0>         0.3970
     30 H12         0.0419   -3.7401   -2.4206 H         1 <0>         0.4126
@<TRIPOS>BOND
     1    1    2 1
     2    1   19 1
     3    1   20 1
     4    1   21 1
     5    2    7 ar
     6    2    3 ar
     7    3    4 ar
     8    3   22 1
     9    4    5 ar
    10    4   18 1
    11    5    6 ar
    12    5    9 1
    13    6    7 ar
    14    6   23 1
    15    7    8 1
    16    8   24 1
    17    8   25 1
    18    8   26 1
    19    9   10 2
    20    9   11 2
    21    9   12 1
    22   12   13 1
    23   13   17 2
    24   13   14 1
    25   14   15 2
    26   14   27 1
    27   15   16 1
    28   15   28 1
    29   16   17 1
    30   18   29 1
    31   18   30 1
@<TRIPOS>MOLECULE
ZINC65336837
   16    16     0     0     0
SMALL
USER_CHARGES

@<TRIPOS>ATOM
      1 C1          0.0311    1.3985   -0.3050 C.ar      1 <0>        -0.3279
      2 C2          1.2085    2.0887   -0.0498 C.ar      1 <0>         0.3124
      3 C3          2.3707    1.3893    0.2498 C.ar      1 <0>        -0.2258
      4 C4          2.3552    0.0083    0.2934 C.ar      1 <0>         0.0368
      5 C5          1.1840   -0.6806    0.0392 C.ar      1 <0>        -0.2313
      6 C6          0.0191    0.0137   -0.2600 C.ar      1 <0>         0.3396
      7 O1         -1.1320   -0.6647   -0.5089 O.3       1 <0>        -0.6601
      8 Br1         1.1680   -2.5705    0.0994 Br        1 <0>        -0.0712
      9 N1          3.6266    2.1238    0.5220 N.pl3     1 <0>         0.0741
     10 O2          4.6823    1.6809    0.1336 O.2       1 <0>        -0.2033
     11 O3          3.5966    3.1667    1.1329 O.3       1 <0>        -0.2205
     12 N2          1.2244    3.4850   -0.0948 N.pl3     1 <0>        -0.8711
     13 H1         -0.8748    1.9402   -0.5338 H         1 <0>         0.1228
     14 H2          3.2598   -0.5338    0.5262 H         1 <0>         0.1277
     15 H3          0.3940    3.9766   -0.1925 H         1 <0>         0.3988
     16 H4          2.0660    3.9628   -0.0283 H         1 <0>         0.3990
@<TRIPOS>BOND
     1    1    6 ar
     2    1    2 ar
     3    1   13 1
     4    2    3 ar
     5    2   12 1
     6    3    4 ar
     7    3    9 1
     8    4    5 ar
     9    4   14 1
    10    5    6 ar
    11    5    8 1
    12    6    7 1
    13    9   10 2
    14    9   11 1
    15   12   15 1
    16   12   16 1
@<TRIPOS>MOLECULE
ZINC15781157
   42    45     0     0     0
SMALL
USER_CHARGES
[(2S,3R,4S,5R)-3,4-dihydroxy-5-(hydroxymethyl)tetrahydrofuran-2-yl]-methyl-BLAHone
@<TRIPOS>ATOM
      1 C1         11.1136   -0.0962    2.9958 C.3       1 <0>        -0.0857
      2 C2          9.7372    0.0115    2.3916 C.ar      1 <0>         0.3418
      3 N1          9.4615   -0.6881    1.3085 N.ar      1 <0>        -0.5353
      4 C3          8.2604   -0.6263    0.7399 C.ar      1 <0>         0.1862
      5 C4          7.3149    0.1765    1.2972 C.ar      1 <0>        -0.2822
      6 C5          7.6229    0.9159    2.4509 C.ar      1 <0>         0.4050
      7 N2          8.8516    0.8012    2.9646 N.ar      1 <0>        -0.5112
      8 N3          6.6958    1.7173    3.0178 N.2       1 <0>        -0.5527
      9 C6          5.4717    1.8734    2.5611 C.2       1 <0>         0.4903
     10 C7          4.5801    2.7461    3.2418 C.2       1 <0>        -0.2153
     11 C8          3.3267    2.9033    2.7717 C.2       1 <0>         0.1791
     12 N4          2.9180    2.2291    1.6513 N.am      1 <0>        -0.5272
     13 C9          3.7551    1.3967    1.0046 C.2       1 <0>         0.6993
     14 O1          3.3690    0.8047    0.0153 O.2       1 <0>        -0.4889
     15 N5          5.0139    1.2171    1.4372 N.am      1 <0>        -0.5609
     16 C10         5.9256    0.3091    0.7203 C.3       1 <0>         0.1732
     17 C11         1.5519    2.4116    1.1548 C.3       1 <0>         0.3072
     18 H1          1.3742    3.4598    0.9145 H         1 <0>         0.1240
     19 C12         0.5251    1.9192    2.2056 C.3       1 <0>         0.0690
     20 H2          0.2837    2.7077    2.9184 H         1 <0>         0.0985
     21 C13        -0.6923    1.5933    1.2980 C.3       1 <0>         0.0498
     22 H3         -1.2797    2.4899    1.1001 H         1 <0>         0.0913
     23 C14        -0.0127    1.0858    0.0080 C.3       1 <0>         0.0516
     24 H4          0.0021   -0.0041    0.0020 H         1 <0>         0.1033
     25 O2          1.3280    1.5900   -0.0021 O.3       1 <0>        -0.3083
     26 C15        -0.7703    1.6012   -1.2173 C.3       1 <0>         0.0662
     27 O3         -0.2017    1.0373   -2.4008 O.3       1 <0>        -0.5580
     28 O4         -1.5027    0.5713    1.8818 O.3       1 <0>        -0.5448
     29 O5          0.9957    0.7483    2.8761 O.3       1 <0>        -0.5335
     30 H5         11.1271   -0.9042    3.7272 H         1 <0>         0.0884
     31 H6         11.8399   -0.3049    2.2102 H         1 <0>         0.0883
     32 H7         11.3693    0.8428    3.4868 H         1 <0>         0.0878
     33 H8          8.0407   -1.2021   -0.1470 H         1 <0>         0.1708
     34 H9          4.9029    3.2767    4.1254 H         1 <0>         0.1826
     35 H10         2.6408    3.5640    3.2811 H         1 <0>         0.1821
     36 H11         5.4708   -0.6812    0.6973 H         1 <0>         0.0938
     37 H12         6.0162    0.6599   -0.3077 H         1 <0>         0.0941
     38 H13        -1.8187    1.3119   -1.1444 H         1 <0>         0.0583
     39 H14        -0.6953    2.6878   -1.2603 H         1 <0>         0.0533
     40 H15        -0.6335    1.3209   -3.2183 H         1 <0>         0.3822
     41 H16        -2.2258    0.2706    1.3145 H         1 <0>         0.3919
     42 H17         0.3853    0.4048    3.5428 H         1 <0>         0.3947
@<TRIPOS>BOND
     1    1    2 1
     2    1   30 1
     3    1   31 1
     4    1   32 1
     5    2    7 ar
     6    2    3 ar
     7    3    4 ar
     8    4    5 ar
     9    4   33 1
    10    5   16 1
    11    5    6 ar
    12    6    7 ar
    13    6    8 1
    14    8    9 2
    15    9   15 1
    16    9   10 1
    17   10   11 2
    18   10   34 1
    19   11   12 1
    20   11   35 1
    21   12   13 am
    22   12   17 1
    23   13   14 2
    24   13   15 am
    25   15   16 1
    26   16   36 1
    27   16   37 1
    28   17   18 1
    29   17   25 1
    30   17   19 1
    31   19   20 1
    32   19   21 1
    33   19   29 1
    34   21   22 1
    35   21   23 1
    36   21   28 1
    37   23   24 1
    38   23   25 1
    39   23   26 1
    40   26   27 1
    41   26   38 1
    42   26   39 1
    43   27   40 1
    44   28   41 1
    45   29   42 1
@<TRIPOS>MOLECULE
ZINC40380838
   33    34     0     0     0
SMALL
USER_CHARGES

@<TRIPOS>ATOM
      1 C1          0.1971    1.1056    0.7875 C.2       1 <0>        -0.1176
      2 C2          1.4392    1.6462    0.4405 C.2       1 <0>        -0.0839
      3 C3          1.9688    0.8752   -0.5392 C.2       1 <0>         0.0657
      4 N1          1.1050   -0.1305   -0.8209 N.pl3     1 <0>        -0.5131
      5 H1          1.2415   -0.8242   -1.4850 H         1 <0>         0.4345
      6 C4          0.0014   -0.0033   -0.0080 C.2       1 <0>         0.0341
      7 C5         -1.1691   -0.8871    0.0092 C.2       1 <0>         0.5898
      8 O1         -2.2855   -0.4161    0.1228 O.2       1 <0>        -0.4997
      9 N2         -1.0083   -2.2207   -0.1008 N.am      1 <0>        -0.6050
     10 C6          0.3364   -2.8135   -0.1125 C.3       1 <0>         0.0808
     11 C7          0.4167   -3.8681    0.9981 C.3       1 <0>         0.1034
     12 N3         -0.7495   -4.7556    0.8882 N.pl3     1 <0>        -1.0061
     13 C8         -2.0943   -4.1628    0.8999 C.3       1 <0>         0.1042
     14 C9         -2.1747   -3.1086   -0.2051 C.3       1 <0>         0.0991
     15 S1         -0.5519   -6.3942    0.7530 S.o2      1 <0>         2.7934
     16 O2         -1.7236   -6.8940    0.1232 O.2       1 <0>        -0.9744
     17 O3          0.7483   -6.6038    0.2194 O.2       1 <0>        -0.9747
     18 N4         -0.5389   -7.0141    2.2886 N.pl3     1 <0>        -1.2587
     19 N5          3.2772    1.0955   -1.1955 N.pl3     1 <0>         0.0580
     20 O4          3.6529    0.3417   -2.0629 O.2       1 <0>        -0.1664
     21 O5          3.9702    2.0291   -0.8641 O.3       1 <0>        -0.1227
     22 H2         -0.4793    1.4829    1.5402 H         1 <0>         0.1754
     23 H3          1.8951    2.5230    0.8761 H         1 <0>         0.1776
     24 H4          0.5202   -3.2844   -1.0782 H         1 <0>         0.0887
     25 H5          1.0801   -2.0368    0.0660 H         1 <0>         0.0934
     26 H6          1.3313   -4.4501    0.8845 H         1 <0>         0.1124
     27 H7          0.4117   -3.3762    1.9708 H         1 <0>         0.0820
     28 H8         -2.8380   -4.9394    0.7214 H         1 <0>         0.1129
     29 H9         -2.2781   -3.6919    1.8656 H         1 <0>         0.0811
     30 H10        -3.0890   -2.5269   -0.0877 H         1 <0>         0.1142
     31 H11        -2.1738   -3.6011   -1.1775 H         1 <0>         0.0842
     32 H12        -0.8629   -7.9139    2.4511 H         1 <0>         0.4222
     33 H13        -0.2074   -6.4775    3.0255 H         1 <0>         0.4153
@<TRIPOS>BOND
     1    1    6 2
     2    1    2 1
     3    1   22 1
     4    2    3 2
     5    2   23 1
     6    3    4 1
     7    3   19 1
     8    4    5 1
     9    4    6 1
    10    6    7 1
    11    7    8 2
    12    7    9 am
    13    9   14 1
    14    9   10 1
    15   10   11 1
    16   10   24 1
    17   10   25 1
    18   11   12 1
    19   11   26 1
    20   11   27 1
    21   12   13 1
    22   12   15 1
    23   13   14 1
    24   13   28 1
    25   13   29 1
    26   14   30 1
    27   14   31 1
    28   15   16 2
    29   15   17 2
    30   15   18 1
    31   18   32 1
    32   18   33 1
    33   19   20 2
    34   19   21 1
@<TRIPOS>MOLECULE
ZINC48916665
   39    40     0     0     0
SMALL
USER_CHARGES

@<TRIPOS>ATOM
      1 C1         -0.0187    1.5258    0.0104 C.3       1 <0>        -0.1695
      2 C2          0.0021   -0.0041    0.0020 C.3       1 <0>        -0.1287
      3 C3          0.7182   -0.4975   -1.2568 C.3       1 <0>         0.1108
      4 H1          0.2470   -0.0663   -2.1400 H         1 <0>         0.1125
      5 C4          0.6442   -2.0270   -1.3269 C.3       1 <0>         0.0585
      6 O1          1.4221   -2.5851   -0.2651 O.3       1 <0>        -0.3704
      7 C5          2.8158   -2.2740   -0.3346 C.3       1 <0>         0.0777
      8 H2          3.2177   -2.6150   -1.2887 H         1 <0>         0.0670
      9 C6          3.0010   -0.7571   -0.2137 C.3       1 <0>         0.0862
     10 N1          2.1349   -0.1024   -1.2081 N.pl3     1 <0>        -0.9940
     11 S1          2.7363    1.0433   -2.2416 S.o2      1 <0>         2.7075
     12 O2          4.1330    0.8033   -2.3456 O.2       1 <0>        -0.9512
     13 O3          1.8793    1.0578   -3.3750 O.2       1 <0>        -0.9512
     14 C7          2.5516    2.6069   -1.4506 C.ar      1 <0>        -0.8600
     15 C8          1.3968    3.3544   -1.6207 C.ar      1 <0>         0.3054
     16 N2          1.2901    4.5243   -1.0127 N.ar      1 <0>        -0.5761
     17 C9          2.2709    4.9826   -0.2489 C.ar      1 <0>         0.6052
     18 N3          3.3875    4.2932   -0.0661 N.ar      1 <0>        -0.5595
     19 C10         3.5555    3.1135   -0.6403 C.ar      1 <0>         0.2957
     20 N4          2.1258    6.2108    0.3724 N.pl3     1 <0>        -0.5293
     21 N5          3.1270    6.6986    1.1634 N.3       1 <0>        -0.5901
     22 C11         3.5530   -2.9727    0.8096 C.3       1 <0>        -0.1463
     23 H3          1.0039    1.9031    0.0027 H         1 <0>         0.0535
     24 H4         -0.5459    1.8868   -0.8726 H         1 <0>         0.0583
     25 H5         -0.5289    1.8773    0.9072 H         1 <0>         0.0604
     26 H6          0.5293   -0.3651    0.8851 H         1 <0>         0.0760
     27 H7         -1.0205   -0.3814    0.0098 H         1 <0>         0.0792
     28 H8         -0.3930   -2.3464   -1.2250 H         1 <0>         0.1091
     29 H9          1.0383   -2.3671   -2.2845 H         1 <0>         0.0601
     30 H10         2.7206   -0.4317    0.7881 H         1 <0>         0.0802
     31 H11         4.0420   -0.4978   -0.4066 H         1 <0>         0.1045
     32 H12         0.5940    2.9862   -2.2423 H         1 <0>         0.1828
     33 H13         4.4659    2.5540   -0.4836 H         1 <0>         0.1829
     34 H14         1.3132    6.7252    0.2461 H         1 <0>         0.4226
     35 H15         3.9973    6.7487    0.6553 H         1 <0>         0.3529
     36 H16         2.8794    7.5988    1.5461 H         1 <0>         0.3656
     37 H17         3.4171   -4.0508    0.7246 H         1 <0>         0.0693
     38 H18         4.6155   -2.7351    0.7559 H         1 <0>         0.0762
     39 H19         3.1518   -2.6299    1.7633 H         1 <0>         0.0664
@<TRIPOS>BOND
     1    1    2 1
     2    1   23 1
     3    1   24 1
     4    1   25 1
     5    2    3 1
     6    2   26 1
     7    2   27 1
     8    3    4 1
     9    3   10 1
    10    3    5 1
    11    5    6 1
    12    5   28 1
    13    5   29 1
    14    6    7 1
    15    7    8 1
    16    7    9 1
    17    7   22 1
    18    9   10 1
    19    9   30 1
    20    9   31 1
    21   10   11 1
    22   11   12 2
    23   11   13 2
    24   11   14 1
    25   14   19 ar
    26   14   15 ar
    27   15   16 ar
    28   15   32 1
    29   16   17 ar
    30   17   18 ar
    31   17   20 1
    32   18   19 ar
    33   19   33 1
    34   20   21 1
    35   20   34 1
    36   21   35 1
    37   21   36 1
    38   22   37 1
    39   22   38 1
    40   22   39 1
@<TRIPOS>MOLECULE
ZINC48865680
   35    36     0     0     0
SMALL
USER_CHARGES

@<TRIPOS>ATOM
      1 C1          0.0047    1.3713   -0.2518 C.ar      1 <0>         0.0640
      2 C2          1.2048    2.0526   -0.3113 C.ar      1 <0>        -0.2094
      3 C3          2.3955    1.3815   -0.0644 C.ar      1 <0>         0.3245
      4 C4          2.3750    0.0265    0.2416 C.ar      1 <0>        -0.1424
      5 C5          1.1718   -0.6485    0.2994 C.ar      1 <0>         0.0892
      6 C6         -0.0121    0.0228    0.0531 C.ar      1 <0>        -0.7356
      7 S1         -1.5452   -0.8424    0.1279 S.o2      1 <0>         2.7158
      8 O1         -1.3349   -1.9696    0.9672 O.2       1 <0>        -0.9483
      9 O2         -2.5473    0.1293    0.3943 O.2       1 <0>        -0.9442
     10 N1         -1.8492   -1.4321   -1.3894 N.pl3     1 <0>        -0.9995
     11 C7         -2.5846   -0.7260   -2.4542 C.3       1 <0>         0.1242
     12 C8         -2.0771   -1.3593   -3.7737 C.3       1 <0>        -0.1310
     13 C9         -1.9092   -2.8456   -3.3613 C.3       1 <0>        -0.1217
     14 C10        -1.4249   -2.7440   -1.8997 C.3       1 <0>         0.1513
     15 H1         -0.3385   -2.8232   -1.8608 H         1 <0>         0.0888
     16 C11        -2.0609   -3.8575   -1.0651 C.3       1 <0>         0.0387
     17 O3         -3.4793   -3.8308   -1.2371 O.3       1 <0>        -0.5668
     18 N2          3.6414   -0.6928    0.5050 N.pl3     1 <0>         0.0408
     19 O4          3.7816   -1.8304    0.1206 O.2       1 <0>        -0.1391
     20 O5          4.5356   -0.1427    1.1045 O.3       1 <0>        -0.1710
     21 N3          3.6108    2.0673   -0.1242 N.pl3     1 <0>        -0.8398
     22 H2         -0.9219    1.8935   -0.4393 H         1 <0>         0.1582
     23 H3          1.2173    3.1059   -0.5499 H         1 <0>         0.1561
     24 H4          1.1551   -1.7018    0.5373 H         1 <0>         0.1623
     25 H5         -3.6572   -0.8858   -2.3447 H         1 <0>         0.0790
     26 H6         -2.3547    0.3393   -2.4318 H         1 <0>         0.0732
     27 H7         -2.8173   -1.2552   -4.5670 H         1 <0>         0.0853
     28 H8         -1.1225   -0.9266   -4.0730 H         1 <0>         0.0738
     29 H9         -2.8617   -3.3722   -3.4201 H         1 <0>         0.0925
     30 H10        -1.1578   -3.3352   -3.9809 H         1 <0>         0.0796
     31 H11        -1.6735   -4.8226   -1.3913 H         1 <0>         0.0591
     32 H12        -1.8196   -3.7060   -0.0130 H         1 <0>         0.0802
     33 H13        -3.9492   -4.5112   -0.7357 H         1 <0>         0.3811
     34 H14         3.6190    3.0318   -0.2270 H         1 <0>         0.4159
     35 H15         4.4467    1.5790   -0.0629 H         1 <0>         0.4151
@<TRIPOS>BOND
     1    1    6 ar
     2    1    2 ar
     3    1   22 1
     4    2    3 ar
     5    2   23 1
     6    3    4 ar
     7    3   21 1
     8    4    5 ar
     9    4   18 1
    10    5    6 ar
    11    5   24 1
    12    6    7 1
    13    7    8 2
    14    7    9 2
    15    7   10 1
    16   10   14 1
    17   10   11 1
    18   11   12 1
    19   11   25 1
    20   11   26 1
    21   12   13 1
    22   12   27 1
    23   12   28 1
    24   13   14 1
    25   13   29 1
    26   13   30 1
    27   14   15 1
    28   14   16 1
    29   16   17 1
    30   16   31 1
    31   16   32 1
    32   17   33 1
    33   18   19 2
    34   18   20 1
    35   21   34 1
    36   21   35 1
@<TRIPOS>MOLECULE
ZINC66240708
   46    48     0     0     0
SMALL
USER_CHARGES

@<TRIPOS>ATOM
      1 C1         -6.7297   -6.1915    2.1404 C.3       1 <0>        -0.1759
      2 C2         -5.3504   -5.7095    2.5094 C.2       1 <0>         0.5103
      3 O1         -4.6510   -6.3760    3.2426 O.2       1 <0>        -0.5366
      4 N1         -4.8940   -4.5376    2.0247 N.am      1 <0>        -0.7292
      5 C3         -3.5531   -4.0690    2.3834 C.3       1 <0>         0.1307
      6 H1         -3.3277   -4.3618    3.4089 H         1 <0>         0.0937
      7 C4         -3.4957   -2.5444    2.2631 C.3       1 <0>        -0.1287
      8 C5         -2.1051   -2.0510    2.6692 C.3       1 <0>        -0.1314
      9 C6         -1.0589   -2.6503    1.7242 C.3       1 <0>         0.1077
     10 N2         -1.2041   -4.1124    1.7240 N.am      1 <0>        -0.6030
     11 C7         -2.5233   -4.6918    1.4357 C.3       1 <0>         0.0848
     12 C8         -0.1473   -4.9075    1.9834 C.2       1 <0>         0.5660
     13 O2          0.9535   -4.4197    2.1524 O.2       1 <0>        -0.5260
     14 C9         -0.3262   -6.3709    2.0625 C.ar      1 <0>        -0.1286
     15 C10        -0.9823   -7.0526    1.0343 C.ar      1 <0>        -0.0654
     16 C11        -1.1471   -8.4176    1.1111 C.ar      1 <0>        -0.1067
     17 C12        -0.6613   -9.1176    2.2104 C.ar      1 <0>         0.1800
     18 C13        -0.0077   -8.4422    3.2356 C.ar      1 <0>        -0.1480
     19 C14         0.1652   -7.0780    3.1628 C.ar      1 <0>        -0.0389
     20 N3         -0.8306  -10.5027    2.2852 N.pl3     1 <0>        -0.3465
     21 C15         0.0485  -11.3833    2.8308 C.2       1 <0>         0.4335
     22 C16        -0.5098  -12.6514    2.6963 C.2       1 <0>        -0.2561
     23 C17        -1.7568  -12.4891    2.0485 C.2       1 <0>         0.1412
     24 N4         -1.9372  -11.2191    1.8164 N.2       1 <0>        -0.2853
     25 C18         0.0689  -13.8868    3.1316 C.1       1 <0>         0.2939
     26 N5          0.5280  -14.8669    3.4769 N.1       1 <0>        -0.4385
     27 N6          1.2653  -11.0783    3.4084 N.pl3     1 <0>        -0.8323
     28 H2         -6.9210   -7.1497    2.6235 H         1 <0>         0.0941
     29 H3         -7.4699   -5.4633    2.4719 H         1 <0>         0.0887
     30 H4         -6.7958   -6.3103    1.0589 H         1 <0>         0.0896
     31 H5         -5.4533   -4.0045    1.4383 H         1 <0>         0.4036
     32 H6         -3.6974   -2.2537    1.2322 H         1 <0>         0.0732
     33 H7         -4.2445   -2.1000    2.9187 H         1 <0>         0.0763
     34 H8         -2.0721   -0.9634    2.6057 H         1 <0>         0.0863
     35 H9         -1.8927   -2.3628    3.6918 H         1 <0>         0.0718
     36 H10        -1.2154   -2.2675    0.7157 H         1 <0>         0.0734
     37 H11        -0.0598   -2.3824    2.0680 H         1 <0>         0.0985
     38 H12        -2.4906   -5.7705    1.5893 H         1 <0>         0.1022
     39 H13        -2.7990   -4.4759    0.4035 H         1 <0>         0.0754
     40 H14        -1.3601   -6.5096    0.1806 H         1 <0>         0.1391
     41 H15        -1.6544   -8.9452    0.3169 H         1 <0>         0.1453
     42 H16         0.3683   -8.9889    4.0878 H         1 <0>         0.1377
     43 H17         0.6764   -6.5547    3.9573 H         1 <0>         0.1432
     44 H18        -2.4442  -13.2820    1.7932 H         1 <0>         0.2027
     45 H19         1.5642  -10.1565    3.4516 H         1 <0>         0.4107
     46 H20         1.8210  -11.7859    3.7709 H         1 <0>         0.4239
@<TRIPOS>BOND
     1    1    2 1
     2    1   28 1
     3    1   29 1
     4    1   30 1
     5    2    3 2
     6    2    4 am
     7    4    5 1
     8    4   31 1
     9    5    6 1
    10    5   11 1
    11    5    7 1
    12    7    8 1
    13    7   32 1
    14    7   33 1
    15    8    9 1
    16    8   34 1
    17    8   35 1
    18    9   10 1
    19    9   36 1
    20    9   37 1
    21   10   11 1
    22   10   12 am
    23   11   38 1
    24   11   39 1
    25   12   13 2
    26   12   14 1
    27   14   19 ar
    28   14   15 ar
    29   15   16 ar
    30   15   40 1
    31   16   17 ar
    32   16   41 1
    33   17   18 ar
    34   17   20 1
    35   18   19 ar
    36   18   42 1
    37   19   43 1
    38   20   24 1
    39   20   21 1
    40   21   22 2
    41   21   27 1
    42   22   23 1
    43   22   25 1
    44   23   24 2
    45   23   44 1
    46   25   26 3
    47   27   45 1
    48   27   46 1
@<TRIPOS>MOLECULE
ZINC05732067
   27    27     0     0     0
SMALL
USER_CHARGES
6-(hydroxymethyl)-5-methoxy-tetrahydropyran-2,3,4-triol
@<TRIPOS>ATOM
      1 C1         -1.6966    0.6601    1.6598 C.3       1 <0>         0.0250
      2 O1         -0.6839    1.5478    1.1819 O.3       1 <0>        -0.3606
      3 C2         -0.0127    1.0858    0.0080 C.3       1 <0>         0.0747
      4 H1          0.0021   -0.0041    0.0020 H         1 <0>         0.0824
      5 C3          1.4231    1.6170   -0.0028 C.3       1 <0>         0.0989
      6 H2          1.4082    2.7059    0.0440 H         1 <0>         0.0961
      7 O2          2.0745    1.2006   -1.2046 O.3       1 <0>        -0.3790
      8 C4          1.4598    1.6861   -2.3999 C.3       1 <0>         0.2309
      9 H3          2.0261    1.3422   -3.2654 H         1 <0>         0.0999
     10 C5          0.0255    1.1577   -2.4853 C.3       1 <0>         0.0545
     11 H4          0.0411    0.0694   -2.5428 H         1 <0>         0.0835
     12 C6         -0.7465    1.5946   -1.2366 C.3       1 <0>         0.0973
     13 H5         -1.7521    1.1748   -1.2641 H         1 <0>         0.0650
     14 O3         -0.8231    3.0210   -1.1966 O.3       1 <0>        -0.5281
     15 O4         -0.6103    1.6884   -3.6499 O.3       1 <0>        -0.5489
     16 O5          1.4409    3.1149   -2.3795 O.3       1 <0>        -0.5492
     17 C7          2.1807    1.0643    1.2061 C.3       1 <0>         0.0860
     18 O6          3.4828    1.6505    1.2608 O.3       1 <0>        -0.5658
     19 H6         -1.2495   -0.3037    1.9033 H         1 <0>         0.0445
     20 H7         -2.1582    1.0823    2.5524 H         1 <0>         0.0932
     21 H8         -2.4545    0.5244    0.8883 H         1 <0>         0.0433
     22 H9         -1.2764    3.4120   -1.9560 H         1 <0>         0.3834
     23 H10        -0.1708    1.4547   -4.4789 H         1 <0>         0.3863
     24 H11         2.3177    3.5191   -2.3252 H         1 <0>         0.3826
     25 H12         1.6350    1.3057    2.1182 H         1 <0>         0.0716
     26 H13         2.2730   -0.0178    1.1134 H         1 <0>         0.0503
     27 H14         4.0206    1.3452    2.0042 H         1 <0>         0.3821
@<TRIPOS>BOND
     1    1    2 1
     2    1   19 1
     3    1   20 1
     4    1   21 1
     5    2    3 1
     6    3    4 1
     7    3   12 1
     8    3    5 1
     9    5    6 1
    10    5    7 1
    11    5   17 1
    12    7    8 1
    13    8    9 1
    14    8   10 1
    15    8   16 1
    16   10   11 1
    17   10   12 1
    18   10   15 1
    19   12   13 1
    20   12   14 1
    21   14   22 1
    22   15   23 1
    23   16   24 1
    24   17   18 1
    25   17   25 1
    26   17   26 1
    27   18   27 1
@<TRIPOS>MOLECULE
ZINC16889818
   31    31     0     0     0
SMALL
USER_CHARGES
(2S,3R,4R,5S,6S)-2-[(1R)-1,2-dihydroxyethyl]-6-methoxy-tetrahydropyran-3,4,5-triol
@<TRIPOS>ATOM
      1 C1          2.7602   -0.2660   -2.4833 C.3       1 <0>         0.0293
      2 O1          2.0693   -0.0538   -1.2506 O.3       1 <0>        -0.3658
      3 C2          0.7115   -0.4992   -1.2610 C.3       1 <0>         0.2263
      4 H1          0.2055   -0.1027   -2.1413 H         1 <0>         0.0681
      5 C3          0.0021   -0.0041    0.0020 C.3       1 <0>         0.0588
      6 H2          0.5310   -0.3660    0.8836 H         1 <0>         0.0849
      7 C4         -1.4345   -0.5355    0.0129 C.3       1 <0>         0.0822
      8 H3         -1.9791   -0.1318   -0.8406 H         1 <0>         0.0745
      9 C5         -1.4022   -2.0645   -0.0743 C.3       1 <0>         0.0958
     10 H4         -0.9013   -2.4690    0.8052 H         1 <0>         0.0866
     11 C6         -0.6385   -2.4800   -1.3344 C.3       1 <0>         0.0770
     12 H5         -1.1622   -2.1094   -2.2156 H         1 <0>         0.0837
     13 O2          0.6787   -1.9274   -1.2954 O.3       1 <0>        -0.3899
     14 C7         -0.5500   -4.0061   -1.3974 C.3       1 <0>         0.1298
     15 H6         -1.5499   -4.4235   -1.5155 H         1 <0>         0.1293
     16 C8          0.3185   -4.4179   -2.5878 C.3       1 <0>         0.0465
     17 O3          0.3067   -5.8410   -2.7164 O.3       1 <0>        -0.5635
     18 O4          0.0326   -4.4997   -0.1895 O.3       1 <0>        -0.5432
     19 O5         -2.7383   -2.5676   -0.1365 O.3       1 <0>        -0.5491
     20 O6         -2.0816   -0.1393    1.2238 O.3       1 <0>        -0.5544
     21 O7         -0.0173    1.4248    0.0099 O.3       1 <0>        -0.5560
     22 H7          3.7835    0.0986   -2.3938 H         1 <0>         0.0946
     23 H8          2.7729   -1.3313   -2.7139 H         1 <0>         0.0541
     24 H9          2.2511    0.2727   -3.2826 H         1 <0>         0.0464
     25 H10        -0.0762   -3.9675   -3.4985 H         1 <0>         0.0531
     26 H11         1.3410   -4.0761   -2.4271 H         1 <0>         0.0575
     27 H12         0.8379   -6.1739   -3.4527 H         1 <0>         0.3815
     28 H13         0.9252   -4.1689   -0.0194 H         1 <0>         0.3782
     29 H14        -3.2813   -2.3373    0.6298 H         1 <0>         0.3949
     30 H15        -2.1315    0.8184    1.3479 H         1 <0>         0.3941
     31 H16         0.8606    1.8301    0.0037 H         1 <0>         0.3946
@<TRIPOS>BOND
     1    1    2 1
     2    1   22 1
     3    1   23 1
     4    1   24 1
     5    2    3 1
     6    3    4 1
     7    3   13 1
     8    3    5 1
     9    5    6 1
    10    5    7 1
    11    5   21 1
    12    7    8 1
    13    7    9 1
    14    7   20 1
    15    9   10 1
    16    9   11 1
    17    9   19 1
    18   11   12 1
    19   11   13 1
    20   11   14 1
    21   14   15 1
    22   14   16 1
    23   14   18 1
    24   16   17 1
    25   16   25 1
    26   16   26 1
    27   17   27 1
    28   18   28 1
    29   19   29 1
    30   20   30 1
    31   21   31 1
@<TRIPOS>MOLECULE
ZINC37269420
   25    25     0     0     0
SMALL
USER_CHARGES

@<TRIPOS>ATOM
      1 C1         -0.0289    1.4605    0.0112 C.3       1 <0>         0.0798
      2 N1          0.0025   -0.0041    0.0020 N.am      1 <0>        -0.5981
      3 C2          0.1471   -0.7416    1.2595 C.3       1 <0>         0.0983
      4 C3         -1.2164   -1.0257    1.8349 C.2       1 <0>         0.4994
      5 O1         -2.2111   -0.6492    1.2519 O.2       1 <0>        -0.5327
      6 N2         -1.3306   -1.6982    2.9973 N.am      1 <0>        -0.8563
      7 C4         -0.1016   -0.6730   -1.1634 C.2       1 <0>         0.6120
      8 O2         -0.1772   -1.8875   -1.1632 O.2       1 <0>        -0.5552
      9 C5         -0.1239    0.0634   -2.4328 C.2       1 <0>        -0.3709
     10 C6          0.5880    1.2493   -2.7308 C.2       1 <0>         0.1145
     11 N3          0.3087    1.5943   -3.9557 N.2       1 <0>        -0.2995
     12 N4         -0.5826    0.6660   -4.5042 N.pl3     1 <0>        -0.4985
     13 H1         -0.9471    0.6929   -5.4027 H         1 <0>         0.4401
     14 C7         -0.8451   -0.2756   -3.5753 C.2       1 <0>         0.4362
     15 N5         -1.6749   -1.3680   -3.7270 N.pl3     1 <0>        -0.8320
     16 H2          0.9906    1.8459   -0.0056 H         1 <0>         0.0599
     17 H3         -0.5670    1.8180   -0.8667 H         1 <0>         0.0826
     18 H4         -0.5336    1.8074    0.9129 H         1 <0>         0.0679
     19 H5          0.6654   -1.6820    1.0717 H         1 <0>         0.1151
     20 H6          0.7227   -0.1445    1.9668 H         1 <0>         0.1099
     21 H7         -0.5350   -1.9994    3.4636 H         1 <0>         0.4020
     22 H8         -2.2082   -1.8811    3.3677 H         1 <0>         0.4022
     23 H9          1.2483    1.7774   -2.0589 H         1 <0>         0.1906
     24 H10        -1.7988   -1.9887   -2.9920 H         1 <0>         0.4284
     25 H11        -2.1342   -1.5150   -4.5686 H         1 <0>         0.4043
@<TRIPOS>BOND
     1    1    2 1
     2    1   16 1
     3    1   17 1
     4    1   18 1
     5    2    3 1
     6    2    7 am
     7    3    4 1
     8    3   19 1
     9    3   20 1
    10    4    5 2
    11    4    6 am
    12    6   21 1
    13    6   22 1
    14    7    8 2
    15    7    9 1
    16    9   14 2
    17    9   10 1
    18   10   11 2
    19   10   23 1
    20   11   12 1
    21   12   13 1
    22   12   14 1
    23   14   15 1
    24   15   24 1
    25   15   25 1
@<TRIPOS>MOLECULE
ZINC44608186
   35    35     0     0     0
SMALL
USER_CHARGES

@<TRIPOS>ATOM
      1 C1         -0.0184    1.5028    0.0103 C.3       1 <0>        -0.1711
      2 C2          0.0021   -0.0041    0.0020 C.2       1 <0>         0.5143
      3 O1          0.0203   -0.6160    1.0489 O.2       1 <0>        -0.5154
      4 N1          0.0001   -0.6716   -1.1688 N.am      1 <0>        -0.7264
      5 C3          0.0199   -2.1365   -1.1769 C.3       1 <0>         0.1329
      6 H1          0.6221   -2.4972   -0.3430 H         1 <0>         0.1252
      7 C4          0.6216   -2.6330   -2.4951 C.3       1 <0>         0.0946
      8 H2          0.0495   -2.2309   -3.3313 H         1 <0>         0.1051
      9 C5          0.5656   -4.1634   -2.5248 C.3       1 <0>         0.0638
     10 H3          0.9410   -4.5232   -3.4828 H         1 <0>         0.0833
     11 C6         -0.8850   -4.6169   -2.3409 C.3       1 <0>         0.0702
     12 H4         -1.4891   -4.2477   -3.1697 H         1 <0>         0.0818
     13 O2         -1.3934   -4.0956   -1.1113 O.3       1 <0>        -0.3804
     14 C7         -1.4094   -2.6682   -1.0435 C.3       1 <0>         0.2667
     15 H5         -2.0213   -2.2736   -1.8546 H         1 <0>         0.0538
     16 O3         -1.9564   -2.2555    0.2106 O.3       1 <0>        -0.5154
     17 C8         -0.9417   -6.1455   -2.3095 C.3       1 <0>         0.0815
     18 O4         -2.3049   -6.5707   -2.2550 O.3       1 <0>        -0.5612
     19 O5          1.3698   -4.6913   -1.4680 O.3       1 <0>        -0.5375
     20 O6          1.9800   -2.2006   -2.5935 O.3       1 <0>        -0.3233
     21 C9          2.4621   -1.9817   -3.8270 C.2       1 <0>         0.4580
     22 O7          1.7541   -2.1516   -4.7912 O.2       1 <0>        -0.5121
     23 C10         3.8863   -1.5241   -4.0091 C.3       1 <0>        -0.1475
     24 H6          1.0042    1.8801    0.0026 H         1 <0>         0.0935
     25 H7         -0.5455    1.8639   -0.8728 H         1 <0>         0.0777
     26 H8         -0.5286    1.8543    0.9071 H         1 <0>         0.0949
     27 H9         -0.0145   -0.1822   -2.0061 H         1 <0>         0.3980
     28 H10        -2.8622   -2.5576    0.3631 H         1 <0>         0.3863
     29 H11        -0.4721   -6.5451   -3.2084 H         1 <0>         0.0674
     30 H12        -0.4117   -6.5108   -1.4298 H         1 <0>         0.0624
     31 H13        -2.4168   -7.5309   -2.2327 H         1 <0>         0.3862
     32 H14         1.3806   -5.6573   -1.4269 H         1 <0>         0.3814
     33 H15         4.5635   -2.2683   -3.5899 H         1 <0>         0.1037
     34 H16         4.0952   -1.4005   -5.0717 H         1 <0>         0.1045
     35 H17         4.0305   -0.5726   -3.4974 H         1 <0>         0.1030
@<TRIPOS>BOND
     1    1    2 1
     2    1   24 1
     3    1   25 1
     4    1   26 1
     5    2    3 2
     6    2    4 am
     7    4    5 1
     8    4   27 1
     9    5    6 1
    10    5   14 1
    11    5    7 1
    12    7    8 1
    13    7    9 1
    14    7   20 1
    15    9   10 1
    16    9   11 1
    17    9   19 1
    18   11   12 1
    19   11   13 1
    20   11   17 1
    21   13   14 1
    22   14   15 1
    23   14   16 1
    24   16   28 1
    25   17   18 1
    26   17   29 1
    27   17   30 1
    28   18   31 1
    29   19   32 1
    30   20   21 1
    31   21   22 2
    32   21   23 1
    33   23   33 1
    34   23   34 1
    35   23   35 1
@<TRIPOS>MOLECULE
ZINC65739805
   30    30     0     0     0
SMALL
USER_CHARGES

@<TRIPOS>ATOM
      1 C1         -0.0187    1.5258    0.0104 C.3       1 <0>        -0.1658
      2 C2          0.0021   -0.0041    0.0020 C.3       1 <0>         0.2876
      3 C3         -1.4341   -0.5342    0.0143 C.3       1 <0>        -0.1596
      4 C4         -1.4046   -2.0648    0.0666 C.3       1 <0>         0.0733
      5 H1         -2.4233   -2.4471    0.1321 H         1 <0>         0.0605
      6 C5         -0.6110   -2.5074    1.2997 C.3       1 <0>         0.0928
      7 H2         -0.5379   -3.5948    1.3149 H         1 <0>         0.0713
      8 C6          0.7934   -1.9010    1.2378 C.3       1 <0>         0.0787
      9 H3          1.3134   -2.2777    0.3570 H         1 <0>         0.0933
     10 O1          0.6932   -0.4777    1.1597 O.3       1 <0>        -0.3854
     11 C7          1.5729   -2.2897    2.4957 C.3       1 <0>         0.1230
     12 H4          1.7252   -3.3689    2.5098 H         1 <0>         0.1116
     13 C8          2.9299   -1.5830    2.4933 C.3       1 <0>         0.0468
     14 O2          3.7041   -2.0347    3.6063 O.3       1 <0>        -0.5657
     15 O3          0.8338   -1.8977    3.6542 O.3       1 <0>        -0.5290
     16 O4         -1.2752   -2.0570    2.4821 O.3       1 <0>        -0.5279
     17 O5         -0.7788   -2.5715   -1.1139 O.3       1 <0>        -0.5460
     18 O6          0.6704   -0.4651   -1.1739 O.3       1 <0>        -0.5570
     19 H5          1.0039    1.9031    0.0027 H         1 <0>         0.0679
     20 H6         -0.5459    1.8868   -0.8726 H         1 <0>         0.0794
     21 H7         -0.5289    1.8773    0.9072 H         1 <0>         0.0751
     22 H8         -1.9568   -0.1498    0.8902 H         1 <0>         0.0989
     23 H9         -1.9496   -0.2105   -0.8898 H         1 <0>         0.0817
     24 H10         3.4572   -1.8120    1.5672 H         1 <0>         0.0498
     25 H11         2.7790   -0.5062    2.5688 H         1 <0>         0.0564
     26 H12         4.5790   -1.6275    3.6680 H         1 <0>         0.3794
     27 H13         0.6609   -0.9478    3.7077 H         1 <0>         0.3766
     28 H14        -2.1736   -2.3999    2.5834 H         1 <0>         0.3728
     29 H15        -1.2269   -2.3233   -1.9341 H         1 <0>         0.3818
     30 H16         1.5874   -0.1670   -1.2476 H         1 <0>         0.3777
@<TRIPOS>BOND
     1    1    2 1
     2    1   19 1
     3    1   20 1
     4    1   21 1
     5    2   10 1
     6    2    3 1
     7    2   18 1
     8    3    4 1
     9    3   22 1
    10    3   23 1
    11    4    5 1
    12    4    6 1
    13    4   17 1
    14    6    7 1
    15    6    8 1
    16    6   16 1
    17    8    9 1
    18    8   10 1
    19    8   11 1
    20   11   12 1
    21   11   13 1
    22   11   15 1
    23   13   14 1
    24   13   24 1
    25   13   25 1
    26   14   26 1
    27   15   27 1
    28   16   28 1
    29   17   29 1
    30   18   30 1
@<TRIPOS>MOLECULE
ZINC19981299
   36    37     0     0     0
SMALL
USER_CHARGES
(3R)-1-(cyclopentylcarbamoyl)piperidine-3-carboxylic acid
@<TRIPOS>ATOM
      1 C1         -4.3794    0.1573    1.5003 C.3       1 <0>        -0.1294
      2 C2         -4.5886   -1.0626    0.5690 C.3       1 <0>        -0.1210
      3 C3         -3.5454   -0.8671   -0.5506 C.3       1 <0>        -0.1278
      4 C4         -2.4342    0.0221    0.0343 C.3       1 <0>         0.1643
      5 C5         -2.8402    0.3371    1.4889 C.3       1 <0>        -0.1361
      6 N1         -1.1560   -0.6934    0.0139 N.am      1 <0>        -0.7589
      7 C6          0.0021   -0.0041    0.0020 C.2       1 <0>         0.7108
      8 O1         -0.0131    1.2084   -0.0872 O.2       1 <0>        -0.6092
      9 N2          1.1769   -0.6587    0.0890 N.am      1 <0>        -0.6269
     10 C7          2.4417    0.0828    0.1862 C.3       1 <0>         0.1286
     11 C8          3.3889   -0.4036   -0.9092 C.3       1 <0>        -0.1352
     12 C9          3.5417   -1.9231   -0.8108 C.3       1 <0>        -0.0956
     13 C10         2.1792   -2.5889   -1.0174 C.3       1 <0>        -0.1417
     14 H1          1.7770   -2.3221   -2.0059 H         1 <0>         0.0724
     15 C11         1.2178   -2.1274    0.0824 C.3       1 <0>         0.1391
     16 C12         2.3361   -4.0863   -0.9525 C.2       1 <0>         0.4662
     17 O2          3.4263   -4.5719   -0.7636 O.co2     1 <0>        -0.6341
     18 O3          1.2648   -4.8806   -1.1046 O.co2     1 <0>        -0.7695
     19 H2         -4.7189   -0.0310    2.5295 H         1 <0>         0.0637
     20 H3         -4.8581    1.0707    1.1176 H         1 <0>         0.0650
     21 H4         -4.4174   -1.9899    1.1354 H         1 <0>         0.0677
     22 H5         -5.6176   -1.0550    0.1803 H         1 <0>         0.0649
     23 H6         -3.1455   -1.8459   -0.8541 H         1 <0>         0.0764
     24 H7         -4.0219   -0.3817   -1.4151 H         1 <0>         0.0734
     25 H8         -2.2660    0.9300   -0.5636 H         1 <0>         0.0897
     26 H9         -2.5896    1.3697    1.7734 H         1 <0>         0.0658
     27 H10        -2.3841   -0.3616    2.2056 H         1 <0>         0.0689
     28 H11        -1.1414   -1.7933    0.0083 H         1 <0>         0.4168
     29 H12         2.2472    1.1579    0.0579 H         1 <0>         0.0879
     30 H13         2.8947   -0.0927    1.1731 H         1 <0>         0.0604
     31 H14         2.9771   -0.1387   -1.8942 H         1 <0>         0.0613
     32 H15         4.3719    0.0735   -0.7824 H         1 <0>         0.0693
     33 H16         4.2409   -2.2722   -1.5849 H         1 <0>         0.0646
     34 H17         3.9321   -2.1888    0.1827 H         1 <0>         0.0628
     35 H18         1.5687   -2.4888    1.0603 H         1 <0>         0.0645
     36 H19         0.2097   -2.5214   -0.1140 H         1 <0>         0.0810
@<TRIPOS>BOND
     1    1    5 1
     2    1    2 1
     3    1   19 1
     4    1   20 1
     5    2    3 1
     6    2   21 1
     7    2   22 1
     8    3    4 1
     9    3   23 1
    10    3   24 1
    11    4    5 1
    12    4    6 1
    13    4   25 1
    14    5   26 1
    15    5   27 1
    16    6    7 am
    17    6   28 1
    18    7    8 2
    19    7    9 am
    20    9   15 1
    21    9   10 1
    22   10   11 1
    23   10   29 1
    24   10   30 1
    25   11   12 1
    26   11   31 1
    27   11   32 1
    28   12   13 1
    29   12   33 1
    30   12   34 1
    31   13   14 1
    32   13   15 1
    33   13   16 1
    34   15   35 1
    35   15   36 1
    36   16   17 2
    37   16   18 1
@<TRIPOS>MOLECULE
ZINC40434197
   25    26     0     0     0
SMALL
USER_CHARGES

@<TRIPOS>ATOM
      1 C1         -0.0167    1.3794    0.0096 C.ar      1 <0>        -0.1046
      2 C2          1.1667    2.0884    0.0021 C.ar      1 <0>        -0.0536
      3 C3          2.3849    1.4069   -0.0131 C.ar      1 <0>        -0.1239
      4 C4          2.3966    0.0111   -0.0207 C.ar      1 <0>        -0.0855
      5 C5          1.2060   -0.6857   -0.0130 C.ar      1 <0>        -0.1048
      6 C6          0.0021   -0.0041    0.0020 C.ar      1 <0>        -0.0788
      7 C7         -1.2946   -0.7719    0.0107 C.3       1 <0>         0.0001
      8 Cl1        -1.8285   -1.0690   -1.6856 Cl        1 <0>        -0.1674
      9 C8          3.6567    2.1600   -0.0217 C.2       1 <0>         0.5601
     10 O1          3.6433    3.3756   -0.0155 O.2       1 <0>        -0.4670
     11 N1          4.8312    1.4991   -0.0364 N.am      1 <0>        -0.6268
     12 C9          6.0340    2.2113   -0.0445 C.2       1 <0>         0.4526
     13 N2          6.1499    3.5427   -0.0332 N.2       1 <0>        -0.5226
     14 C10         7.4149    3.8771   -0.0457 C.2       1 <0>         0.2810
     15 N3          8.1469    2.7503   -0.0657 N.pl3     1 <0>        -0.4773
     16 H1          9.1147    2.6868   -0.0783 H         1 <0>         0.4461
     17 N4          7.2345    1.6827   -0.0588 N.2       1 <0>        -0.3383
     18 H2         -0.9598    1.9054    0.0260 H         1 <0>         0.1365
     19 H3          1.1507    3.1683    0.0077 H         1 <0>         0.1435
     20 H4          3.3357   -0.5222   -0.0328 H         1 <0>         0.1304
     21 H5          1.2137   -1.7657   -0.0192 H         1 <0>         0.1352
     22 H6         -1.1487   -1.7256    0.5180 H         1 <0>         0.1063
     23 H7         -2.0556   -0.1940    0.5352 H         1 <0>         0.1066
     24 H8          4.8418    0.5292   -0.0414 H         1 <0>         0.4228
     25 H9          7.8036    4.8847   -0.0414 H         1 <0>         0.2293
@<TRIPOS>BOND
     1    1    6 ar
     2    1    2 ar
     3    1   18 1
     4    2    3 ar
     5    2   19 1
     6    3    4 ar
     7    3    9 1
     8    4    5 ar
     9    4   20 1
    10    5    6 ar
    11    5   21 1
    12    6    7 1
    13    7    8 1
    14    7   22 1
    15    7   23 1
    16    9   10 2
    17    9   11 am
    18   11   12 1
    19   11   24 1
    20   12   17 2
    21   12   13 1
    22   13   14 2
    23   14   15 1
    24   14   25 1
    25   15   16 1
    26   15   17 1
@<TRIPOS>MOLECULE
ZINC41976780
   30    31     0     0     0
SMALL
USER_CHARGES

@<TRIPOS>ATOM
      1 C1         -0.0187    1.5258    0.0104 C.3       1 <0>        -0.1420
      2 C2          0.0021   -0.0041    0.0020 C.3       1 <0>        -0.0998
      3 H1          0.5123   -0.3556   -0.8948 H         1 <0>         0.1183
      4 C3         -1.4333   -0.5336    0.0129 C.3       1 <0>        -0.0963
      5 C4         -1.4126   -2.0635    0.0045 C.3       1 <0>        -0.1259
      6 C5         -0.6726   -2.5703    1.2440 C.3       1 <0>        -0.0925
      7 C6          0.7628   -2.0407    1.2331 C.3       1 <0>        -0.0954
      8 C7          0.7421   -0.5109    1.2415 C.3       1 <0>        -0.0705
      9 C8          1.4682   -2.5267   -0.0067 C.2       1 <0>         0.5200
     10 O1          1.0371   -2.2320   -1.1085 O.co2     1 <0>        -0.6702
     11 O2          2.4699   -3.2147    0.0919 O.co2     1 <0>        -0.6672
     12 S1          1.6402   -2.6417    2.7027 S.3       1 <0>        -0.0265
     13 C9          1.5786   -4.3958    2.5484 C.2       1 <0>         0.3049
     14 N1          2.0997   -5.2897    3.4167 N.pl3     1 <0>        -0.4816
     15 H2          2.5760   -5.0925    4.2384 H         1 <0>         0.4349
     16 N2          1.8148   -6.5611    2.8931 N.2       1 <0>        -0.3366
     17 C10         1.1610   -6.3772    1.7777 C.2       1 <0>         0.2064
     18 N3          1.0115   -5.0686    1.5692 N.2       1 <0>        -0.5088
     19 H3          1.0039    1.9031    0.0027 H         1 <0>         0.0481
     20 H4         -0.5459    1.8868   -0.8726 H         1 <0>         0.0499
     21 H5         -0.5289    1.8773    0.9072 H         1 <0>         0.0431
     22 H6         -1.9435   -0.1821    0.9097 H         1 <0>         0.0416
     23 H7         -1.9605   -0.1726   -0.8702 H         1 <0>         0.0515
     24 H8         -2.4352   -2.4408    0.0122 H         1 <0>         0.0411
     25 H9         -0.9024   -2.4150   -0.8923 H         1 <0>         0.1077
     26 H10        -1.1828   -2.2188    2.1408 H         1 <0>         0.0448
     27 H11        -0.6578   -3.6602    1.2380 H         1 <0>         0.0789
     28 H12         1.7647   -0.1336    1.2338 H         1 <0>         0.0587
     29 H13         0.2319   -0.1594    2.1383 H         1 <0>         0.0521
     30 H14         0.7957   -7.1601    1.1297 H         1 <0>         0.2114
@<TRIPOS>BOND
     1    1    2 1
     2    1   19 1
     3    1   20 1
     4    1   21 1
     5    2    3 1
     6    2    8 1
     7    2    4 1
     8    4    5 1
     9    4   22 1
    10    4   23 1
    11    5    6 1
    12    5   24 1
    13    5   25 1
    14    6    7 1
    15    6   26 1
    16    6   27 1
    17    7    8 1
    18    7    9 1
    19    7   12 1
    20    8   28 1
    21    8   29 1
    22    9   10 2
    23    9   11 1
    24   12   13 1
    25   13   18 2
    26   13   14 1
    27   14   15 1
    28   14   16 1
    29   16   17 2
    30   17   18 1
    31   17   30 1
@<TRIPOS>MOLECULE
ZINC41982307
   33    34     0     0     0
SMALL
USER_CHARGES

@<TRIPOS>ATOM
      1 C1         -0.0187    1.5258    0.0104 C.3       1 <0>        -0.1415
      2 C2          0.0021   -0.0041    0.0020 C.3       1 <0>        -0.1002
      3 H1         -1.0205   -0.3814    0.0098 H         1 <0>         0.1187
      4 C3          0.7182   -0.4975   -1.2568 C.3       1 <0>        -0.0963
      5 C4          0.7390   -2.0273   -1.2652 C.3       1 <0>        -0.1256
      6 C5          1.4790   -2.5342   -0.0257 C.3       1 <0>        -0.0959
      7 C6          0.7628   -2.0407    1.2331 C.3       1 <0>        -0.0894
      8 C7          0.7421   -0.5109    1.2415 C.3       1 <0>        -0.0707
      9 C8         -0.6510   -2.5624    1.2438 C.2       1 <0>         0.5248
     10 O1         -1.0315   -3.2736    2.1581 O.co2     1 <0>        -0.6707
     11 O2         -1.4143   -2.2732    0.3382 O.co2     1 <0>        -0.6666
     12 S1          1.6402   -2.6417    2.7027 S.3       1 <0>        -0.0389
     13 C9          1.5786   -4.3958    2.5484 C.2       1 <0>         0.4154
     14 N1          2.1512   -5.1720    3.5078 N.pl3     1 <0>        -0.6106
     15 C10         2.1146   -6.5331    3.4081 C.2       1 <0>         0.1358
     16 C11         1.5037   -7.1015    2.3467 C.2       1 <0>        -0.2953
     17 C12         0.9162   -6.2646    1.3634 C.2       1 <0>         0.5085
     18 N2          0.9736   -4.9339    1.5079 N.2       1 <0>        -0.5382
     19 O3          0.3579   -6.7542    0.3933 O.2       1 <0>        -0.5238
     20 H2          1.0039    1.9031    0.0027 H         1 <0>         0.0430
     21 H3         -0.5459    1.8868   -0.8726 H         1 <0>         0.0502
     22 H4         -0.5289    1.8773    0.9072 H         1 <0>         0.0480
     23 H5          0.1910   -0.1364   -2.1398 H         1 <0>         0.0518
     24 H6          1.7408   -0.1202   -1.2645 H         1 <0>         0.0414
     25 H7         -0.2836   -2.4046   -1.2575 H         1 <0>         0.1085
     26 H8          1.2492   -2.3788   -2.1620 H         1 <0>         0.0418
     27 H9          1.4937   -3.6240   -0.0317 H         1 <0>         0.0855
     28 H10         2.5015   -2.1569   -0.0334 H         1 <0>         0.0432
     29 H11         1.7647   -0.1336    1.2338 H         1 <0>         0.0523
     30 H12         0.2319   -0.1594    2.1383 H         1 <0>         0.0589
     31 H13         2.5697   -7.1486    4.1699 H         1 <0>         0.1696
     32 H14         1.4634   -8.1762    2.2476 H         1 <0>         0.1475
     33 H15         2.5885   -4.7558    4.2671 H         1 <0>         0.4189
@<TRIPOS>BOND
     1    1    2 1
     2    1   20 1
     3    1   21 1
     4    1   22 1
     5    2    3 1
     6    2    8 1
     7    2    4 1
     8    4    5 1
     9    4   23 1
    10    4   24 1
    11    5    6 1
    12    5   25 1
    13    5   26 1
    14    6    7 1
    15    6   27 1
    16    6   28 1
    17    7    8 1
    18    7    9 1
    19    7   12 1
    20    8   29 1
    21    8   30 1
    22    9   10 2
    23    9   11 1
    24   12   13 1
    25   13   18 2
    26   13   14 1
    27   14   15 1
    28   14   33 1
    29   15   16 2
    30   15   31 1
    31   16   17 1
    32   16   32 1
    33   17   18 1
    34   17   19 2
@<TRIPOS>MOLECULE
ZINC64428489
   35    37     0     0     0
SMALL
USER_CHARGES

@<TRIPOS>ATOM
      1 C1         -0.0652    1.8602    0.5806 C.3       1 <0>        -0.1102
      2 C2          0.1645    0.3536    0.7161 C.3       1 <0>        -0.0831
      3 C3          0.8486   -0.3643   -0.4491 C.3       1 <0>        -0.1875
      4 H1          1.1350    0.2367   -1.3121 H         1 <0>         0.1104
      5 C4          1.6088   -0.1309    0.8580 C.3       1 <0>        -0.1661
      6 H2          2.3954    0.6237    0.8548 H         1 <0>         0.1014
      7 C5          1.8582   -1.3264    1.7410 C.2       1 <0>         0.5206
      8 O1          2.4335   -2.3043    1.2948 O.co2     1 <0>        -0.6885
      9 O2          1.4846   -1.3156    2.9015 O.co2     1 <0>        -0.6820
     10 C6          0.4060   -1.7719   -0.7553 C.2       1 <0>         0.5691
     11 O3         -0.4619   -2.2934   -0.0879 O.2       1 <0>        -0.5083
     12 N1          0.9749   -2.4513   -1.7708 N.am      1 <0>        -0.6811
     13 C7          0.4973   -3.7062   -2.1194 C.2       1 <0>         0.1979
     14 C8          1.3369   -4.7984   -2.0864 C.2       1 <0>        -0.1462
     15 C9          0.7339   -6.0214   -2.4021 C.2       1 <0>        -0.0499
     16 C10         1.1959   -7.1475   -2.9814 C.2       1 <0>        -0.2050
     17 C11         0.1093   -7.9753   -3.3246 C.2       1 <0>         0.1396
     18 N2         -1.0295   -7.4899   -2.9119 N.2       1 <0>        -0.4823
     19 C12        -0.7412   -6.2846   -2.1476 C.3       1 <0>         0.0564
     20 H3         -0.9050   -6.4724   -1.0865 H         1 <0>         0.1485
     21 C13        -1.5023   -5.0652   -2.5727 C.2       1 <0>        -0.0966
     22 C14        -0.9031   -3.8746   -2.5178 C.2       1 <0>        -0.1181
     23 C15        -0.9160   -0.4124    1.4819 C.3       1 <0>        -0.1010
     24 H4          0.8932    2.3640    0.4549 H         1 <0>         0.0527
     25 H5         -0.6948    2.0551   -0.2876 H         1 <0>         0.0531
     26 H6         -0.5576    2.2348    1.4780 H         1 <0>         0.0619
     27 H7          1.7183   -2.0628   -2.2580 H         1 <0>         0.4073
     28 H8          2.3842   -4.7166   -1.8356 H         1 <0>         0.1452
     29 H9          2.2364   -7.3786   -3.1556 H         1 <0>         0.1421
     30 H10         0.2073   -8.9044   -3.8665 H         1 <0>         0.1675
     31 H11        -2.5234   -5.1492   -2.9144 H         1 <0>         0.1337
     32 H12        -1.4744   -2.9973   -2.7831 H         1 <0>         0.1226
     33 H13        -1.8259   -0.4534    0.8831 H         1 <0>         0.0406
     34 H14        -0.5686   -1.4255    1.6847 H         1 <0>         0.0908
     35 H15        -1.1235    0.0959    2.4236 H         1 <0>         0.0446
@<TRIPOS>BOND
     1    1    2 1
     2    1   24 1
     3    1   25 1
     4    1   26 1
     5    2    5 1
     6    2    3 1
     7    2   23 1
     8    3    4 1
     9    3    5 1
    10    3   10 1
    11    5    6 1
    12    5    7 1
    13    7    8 2
    14    7    9 1
    15   10   11 2
    16   10   12 am
    17   12   13 1
    18   12   27 1
    19   13   22 1
    20   13   14 2
    21   14   15 1
    22   14   28 1
    23   15   19 1
    24   15   16 2
    25   16   17 1
    26   16   29 1
    27   17   18 2
    28   17   30 1
    29   18   19 1
    30   19   20 1
    31   19   21 1
    32   21   22 2
    33   21   31 1
    34   22   32 1
    35   23   33 1
    36   23   34 1
    37   23   35 1
@<TRIPOS>MOLECULE
ZINC20476479
   31    31     0     0     0
SMALL
USER_CHARGES
5-[(2,6-difluorophenyl)carbamoylamino]-5-oxo-pentanoic acid
@<TRIPOS>ATOM
      1 C1         -1.2427    3.4057    0.0288 C.ar      1 <0>        -0.0552
      2 C2         -0.4430    3.4012    1.1567 C.ar      1 <0>        -0.1612
      3 C3          0.7664    2.7296    1.1466 C.ar      1 <0>         0.1398
      4 C4          1.1770    2.0585    0.0009 C.ar      1 <0>         0.0872
      5 C5          0.3702    2.0651   -1.1307 C.ar      1 <0>         0.1378
      6 C6         -0.8354    2.7433   -1.1145 C.ar      1 <0>        -0.1610
      7 F1          0.7654    1.4146   -2.2469 F         1 <0>        -0.1228
      8 N1          2.4022    1.3772   -0.0135 N.am      1 <0>        -0.7055
      9 C7          3.5205    2.0101   -0.4200 C.2       1 <0>         0.7020
     10 O1          3.4853    3.1954   -0.6864 O.2       1 <0>        -0.5212
     11 N2          4.6780    1.3286   -0.5310 N.am      1 <0>        -0.7031
     12 C8          5.7963    1.9614   -0.9375 C.2       1 <0>         0.5145
     13 O2          5.7611    3.1438   -1.2033 O.2       1 <0>        -0.4597
     14 C9          7.0905    1.1994   -1.0617 C.3       1 <0>        -0.1350
     15 C10         8.1954    2.1448   -1.5375 C.3       1 <0>        -0.0886
     16 C11         9.5093    1.3712   -1.6635 C.3       1 <0>        -0.1573
     17 C12        10.5976    2.3023   -2.1322 C.2       1 <0>         0.4571
     18 O3         10.3479    3.4654   -2.3436 O.co2     1 <0>        -0.6368
     19 O4         11.8443    1.8396   -2.3147 O.co2     1 <0>        -0.7791
     20 F2          1.5476    2.7264    2.2488 F         1 <0>        -0.1223
     21 H1         -2.1860    3.9315    0.0395 H         1 <0>         0.1478
     22 H2         -0.7628    3.9228    2.0466 H         1 <0>         0.1475
     23 H3         -1.4610    2.7522   -1.9948 H         1 <0>         0.1475
     24 H4          2.4508    0.3260    0.3070 H         1 <0>         0.4316
     25 H5          4.7100    0.2558   -0.2898 H         1 <0>         0.4326
     26 H6          7.3640    0.7792   -0.0826 H         1 <0>         0.0973
     27 H7          6.9674    0.3837   -1.7893 H         1 <0>         0.0973
     28 H8          7.9220    2.5650   -2.5166 H         1 <0>         0.0703
     29 H9          8.3185    2.9605   -0.8099 H         1 <0>         0.0703
     30 H10         9.7827    0.9511   -0.6844 H         1 <0>         0.0642
     31 H11         9.3862    0.5554   -2.3911 H         1 <0>         0.0642
@<TRIPOS>BOND
     1    1    6 ar
     2    1    2 ar
     3    1   21 1
     4    2    3 ar
     5    2   22 1
     6    3    4 ar
     7    3   20 1
     8    4    5 ar
     9    4    8 1
    10    5    6 ar
    11    5    7 1
    12    6   23 1
    13    8    9 am
    14    8   24 1
    15    9   10 2
    16    9   11 am
    17   11   12 am
    18   11   25 1
    19   12   13 2
    20   12   14 1
    21   14   15 1
    22   14   26 1
    23   14   27 1
    24   15   16 1
    25   15   28 1
    26   15   29 1
    27   16   17 1
    28   16   30 1
    29   16   31 1
    30   17   18 2
    31   17   19 1
@<TRIPOS>MOLECULE
ZINC40603613
   33    33     0     0     0
SMALL
USER_CHARGES

@<TRIPOS>ATOM
      1 C1         -0.0004    1.5507    0.0204 C.3       1 <0>        -0.1750
      2 C2          0.0063    0.0208    0.0089 C.3       1 <0>         0.1048
      3 N1          0.7130   -0.4733    1.1933 N.am      1 <0>        -0.6258
      4 C3         -0.0249   -0.7300    2.4326 C.3       1 <0>         0.1315
      5 C4         -0.5210   -2.1773    2.4403 C.3       1 <0>         0.0586
      6 O1          0.5986   -3.0645    2.4763 O.3       1 <0>        -0.5487
      7 C5          2.0420   -0.6917    1.1427 C.2       1 <0>         0.7036
      8 O2          2.6285   -1.1018    2.1257 O.2       1 <0>        -0.5332
      9 N2          2.7209   -0.4556    0.0026 N.am      1 <0>        -0.6814
     10 C6          4.1172   -0.5690   -0.0176 C.ar      1 <0>         0.1182
     11 C7          4.8413   -0.4109    1.1512 C.ar      1 <0>        -0.0688
     12 C8          6.2338   -0.5250    1.1261 C.ar      1 <0>        -0.1202
     13 C9          6.8868   -0.7981   -0.0797 C.ar      1 <0>        -0.0794
     14 C10         6.1570   -0.9539   -1.2387 C.ar      1 <0>        -0.1492
     15 C11         4.7760   -0.8465   -1.2126 C.ar      1 <0>         0.0453
     16 F1          4.0666   -1.0060   -2.3513 F         1 <0>        -0.1521
     17 C12         7.0119   -0.3573    2.3667 C.2       1 <0>         0.5218
     18 O3          6.4388   -0.1181    3.4204 O.co2     1 <0>        -0.6780
     19 O4          8.2307   -0.4576    2.3425 O.co2     1 <0>        -0.6874
     20 H1          1.0256    1.9187    0.0111 H         1 <0>         0.0605
     21 H2         -0.5262    1.9183   -0.8608 H         1 <0>         0.0668
     22 H3         -0.5054    1.9051    0.9190 H         1 <0>         0.0608
     23 H4         -1.0197   -0.3472    0.0182 H         1 <0>         0.0798
     24 H5          0.5113   -0.3336   -0.8897 H         1 <0>         0.0709
     25 H6          0.6319   -0.5665    3.2870 H         1 <0>         0.0958
     26 H7         -0.8772   -0.0534    2.4947 H         1 <0>         0.0894
     27 H8         -1.1443   -2.3430    3.3190 H         1 <0>         0.0511
     28 H9         -1.1052   -2.3659    1.5396 H         1 <0>         0.0397
     29 H10         0.3582   -4.0011    2.4830 H         1 <0>         0.3707
     30 H11         2.2427   -0.2071   -0.8040 H         1 <0>         0.4007
     31 H12         4.3318   -0.1997    2.0798 H         1 <0>         0.1619
     32 H13         7.9629   -0.8866   -0.1031 H         1 <0>         0.1371
     33 H14         6.6631   -1.1645   -2.1692 H         1 <0>         0.1303
@<TRIPOS>BOND
     1    1    2 1
     2    1   20 1
     3    1   21 1
     4    1   22 1
     5    2    3 1
     6    2   23 1
     7    2   24 1
     8    3    4 1
     9    3    7 am
    10    4    5 1
    11    4   25 1
    12    4   26 1
    13    5    6 1
    14    5   27 1
    15    5   28 1
    16    6   29 1
    17    7    8 2
    18    7    9 am
    19    9   10 1
    20    9   30 1
    21   10   15 ar
    22   10   11 ar
    23   11   12 ar
    24   11   31 1
    25   12   13 ar
    26   12   17 1
    27   13   14 ar
    28   13   32 1
    29   14   15 ar
    30   14   33 1
    31   15   16 1
    32   17   18 2
    33   17   19 1
@<TRIPOS>MOLECULE
ZINC49254610
   50    50     0     0     0
SMALL
USER_CHARGES

@<TRIPOS>ATOM
      1 C1          0.8437    1.3213   -0.3751 C.3       1 <0>        -0.1375
      2 C2          0.4403   -0.1490   -0.2474 C.3       1 <0>        -0.0795
      3 H1          0.7499   -0.6897   -1.1418 H         1 <0>         0.0830
      4 C3         -1.0784   -0.2494   -0.0909 C.3       1 <0>        -0.1116
      5 C4         -1.4818   -1.7197    0.0368 C.3       1 <0>        -0.1162
      6 C5         -0.8012   -2.3307    1.2633 C.3       1 <0>        -0.1094
      7 C6          0.7174   -2.2303    1.1068 C.3       1 <0>        -0.0810
      8 H2          1.0271   -2.7710    0.2124 H         1 <0>         0.0709
      9 C7          1.1209   -0.7600    0.9791 C.3       1 <0>         0.1362
     10 C8          2.6167   -0.6611    0.8249 C.2       1 <0>         0.5067
     11 O1          3.2742   -0.0410    1.6433 O.co2     1 <0>        -0.6625
     12 O2          3.1694   -1.2011   -0.1182 O.co2     1 <0>        -0.7111
     13 N1          0.7048   -0.0333    2.1812 N.am      1 <0>        -0.7191
     14 C9          1.3086   -0.2799    3.3606 C.2       1 <0>         0.6983
     15 O3          2.2713   -1.0211    3.4074 O.2       1 <0>        -0.5342
     16 N2          0.8454    0.2951    4.4881 N.am      1 <0>        -0.7631
     17 C10         1.5017    0.0270    5.7701 C.3       1 <0>         0.1418
     18 C11         0.7846    0.7968    6.8810 C.3       1 <0>        -0.1191
     19 C12         1.4700    0.5168    8.2199 C.3       1 <0>        -0.0649
     20 C13         2.9307    0.9665    8.1489 C.3       1 <0>        -0.1475
     21 C14         0.7529    1.2865    9.3308 C.3       1 <0>        -0.1392
     22 C15         1.4120   -0.9826    8.5189 C.3       1 <0>        -0.1463
     23 C16         1.3981   -2.8413    2.3333 C.3       1 <0>        -0.1282
     24 H3          1.9256    1.3928   -0.4866 H         1 <0>         0.0624
     25 H4          0.3588    1.7566   -1.2489 H         1 <0>         0.0436
     26 H5          0.5341    1.8620    0.5193 H         1 <0>         0.0459
     27 H6         -1.3880    0.2913    0.8035 H         1 <0>         0.0540
     28 H7         -1.5633    0.1859   -0.9647 H         1 <0>         0.0556
     29 H8         -2.5637   -1.7912    0.1483 H         1 <0>         0.0518
     30 H9         -1.1722   -2.2604   -0.8576 H         1 <0>         0.0594
     31 H10        -1.1108   -1.7900    2.1577 H         1 <0>         0.0553
     32 H11        -1.0886   -3.3782    1.3542 H         1 <0>         0.0498
     33 H12        -0.0053    0.6254    2.1282 H         1 <0>         0.3744
     34 H13         0.0774    0.8865    4.4507 H         1 <0>         0.3812
     35 H14         1.4603   -1.0411    5.9831 H         1 <0>         0.0593
     36 H15         2.5423    0.3474    5.7195 H         1 <0>         0.0634
     37 H16         0.8259    1.8649    6.6680 H         1 <0>         0.0656
     38 H17        -0.2561    0.4764    6.9316 H         1 <0>         0.0643
     39 H18         2.9721    2.0347    7.9359 H         1 <0>         0.0541
     40 H19         3.4191    0.7670    9.1027 H         1 <0>         0.0521
     41 H20         3.4417    0.4181    7.3574 H         1 <0>         0.0644
     42 H21        -0.2877    0.9661    9.3814 H         1 <0>         0.0527
     43 H22         1.2413    1.0870   10.2846 H         1 <0>         0.0536
     44 H23         0.7943    2.3547    9.1178 H         1 <0>         0.0534
     45 H24         1.9229   -1.5309    7.7274 H         1 <0>         0.0632
     46 H25         1.9003   -1.1820    9.4727 H         1 <0>         0.0523
     47 H26         0.3714   -1.3030    8.5695 H         1 <0>         0.0530
     48 H27         1.2407   -3.9198    2.3366 H         1 <0>         0.0139
     49 H28         2.4669   -2.6301    2.2986 H         1 <0>         0.0824
     50 H29         0.9716   -2.4090    3.2385 H         1 <0>         0.0527
@<TRIPOS>BOND
     1    1    2 1
     2    1   24 1
     3    1   25 1
     4    1   26 1
     5    2    3 1
     6    2    9 1
     7    2    4 1
     8    4    5 1
     9    4   27 1
    10    4   28 1
    11    5    6 1
    12    5   29 1
    13    5   30 1
    14    6    7 1
    15    6   31 1
    16    6   32 1
    17    7    8 1
    18    7    9 1
    19    7   23 1
    20    9   10 1
    21    9   13 1
    22   10   11 2
    23   10   12 1
    24   13   14 am
    25   13   33 1
    26   14   15 2
    27   14   16 am
    28   16   17 1
    29   16   34 1
    30   17   18 1
    31   17   35 1
    32   17   36 1
    33   18   19 1
    34   18   37 1
    35   18   38 1
    36   19   20 1
    37   19   21 1
    38   19   22 1
    39   20   39 1
    40   20   40 1
    41   20   41 1
    42   21   42 1
    43   21   43 1
    44   21   44 1
    45   22   45 1
    46   22   46 1
    47   22   47 1
    48   23   48 1
    49   23   49 1
    50   23   50 1
@<TRIPOS>MOLECULE
ZINC41805634
   36    37     0     0     0
SMALL
USER_CHARGES

@<TRIPOS>ATOM
      1 C1         -0.0187    1.5258    0.0104 C.3       1 <0>        -0.1216
      2 C2          0.0021   -0.0041    0.0020 C.3       1 <0>         0.0755
      3 C3          0.7309   -0.5033    1.2229 C.ar      1 <0>        -0.0909
      4 C4          0.0802   -1.3166    2.1316 C.ar      1 <0>        -0.0552
      5 C5          0.7474   -1.7755    3.2514 C.ar      1 <0>        -0.1743
      6 C6          2.0690   -1.4205    3.4645 C.ar      1 <0>         0.1094
      7 C7          2.7216   -0.6063    2.5554 C.ar      1 <0>        -0.2063
      8 C8          2.0538   -0.1518    1.4310 C.ar      1 <0>         0.1566
      9 F1          2.6913    0.6385    0.5398 F         1 <0>        -0.0992
     10 F2          2.7208   -1.8686    4.5598 F         1 <0>        -0.1424
     11 C9          0.7074   -0.4901   -1.2379 C.2       1 <0>         0.4784
     12 O1          1.8687   -0.1786   -1.4402 O.co2     1 <0>        -0.6665
     13 O2          0.1168   -1.1947   -2.0386 O.co2     1 <0>        -0.6881
     14 N1         -1.3761   -0.5125    0.0124 N.3       1 <0>        -0.6459
     15 C10        -2.1186   -0.0451   -1.1657 C.3       1 <0>         0.0208
     16 C11        -3.5246   -0.5855   -1.1204 C.2       1 <0>         0.5250
     17 O3         -3.8737   -1.2907   -0.1975 O.2       1 <0>        -0.5352
     18 N2         -4.3941   -0.2853   -2.1054 N.am      1 <0>        -0.7108
     19 C12        -5.7609   -0.8107   -2.0613 C.3       1 <0>         0.0866
     20 C13        -6.3465   -1.3661   -3.3611 C.3       1 <0>        -0.1973
     21 C14        -6.8429   -0.0285   -2.8086 C.3       1 <0>        -0.1934
     22 H1          1.0039    1.9031    0.0027 H         1 <0>         0.0693
     23 H2         -0.5459    1.8868   -0.8726 H         1 <0>         0.0519
     24 H3         -0.5289    1.8773    0.9072 H         1 <0>         0.0515
     25 H4         -0.9506   -1.5933    1.9666 H         1 <0>         0.1504
     26 H5          0.2380   -2.4109    3.9607 H         1 <0>         0.1351
     27 H6          3.7522   -0.3290    2.7208 H         1 <0>         0.1409
     28 H7         -1.3895   -1.5197    0.0721 H         1 <0>         0.3448
     29 H8         -2.1481    1.0445   -1.1678 H         1 <0>         0.0894
     30 H9         -1.6231   -0.3969   -2.0706 H         1 <0>         0.1135
     31 H10        -4.1149    0.2787   -2.8435 H         1 <0>         0.4009
     32 H11        -6.0464   -1.3008   -1.1305 H         1 <0>         0.1356
     33 H12        -5.7149   -1.3405   -4.2491 H         1 <0>         0.0967
     34 H13        -7.0174   -2.2219   -3.2857 H         1 <0>         0.0992
     35 H14        -7.8403   -0.0043   -2.3696 H         1 <0>         0.1000
     36 H15        -6.5378    0.8771   -3.3330 H         1 <0>         0.0957
@<TRIPOS>BOND
     1    1    2 1
     2    1   22 1
     3    1   23 1
     4    1   24 1
     5    2    3 1
     6    2   11 1
     7    2   14 1
     8    3    8 ar
     9    3    4 ar
    10    4    5 ar
    11    4   25 1
    12    5    6 ar
    13    5   26 1
    14    6    7 ar
    15    6   10 1
    16    7    8 ar
    17    7   27 1
    18    8    9 1
    19   11   12 2
    20   11   13 1
    21   14   15 1
    22   14   28 1
    23   15   16 1
    24   15   29 1
    25   15   30 1
    26   16   17 2
    27   16   18 am
    28   18   19 1
    29   18   31 1
    30   19   21 1
    31   19   20 1
    32   19   32 1
    33   20   21 1
    34   20   33 1
    35   20   34 1
    36   21   35 1
    37   21   36 1
@<TRIPOS>MOLECULE
ZINC63009339
   33    33     0     0     0
SMALL
USER_CHARGES

@<TRIPOS>ATOM
      1 C1         -0.0006    1.5505    0.0224 C.3       1 <0>        -0.1746
      2 C2          0.0063    0.0206    0.0092 C.3       1 <0>         0.1033
      3 N1          0.7129   -0.4748    1.1930 N.am      1 <0>        -0.6253
      4 C3         -0.0251   -0.7330    2.4319 C.3       1 <0>         0.1326
      5 C4         -0.5212   -2.1804    2.4379 C.3       1 <0>         0.0576
      6 O1          0.5985   -3.0675    2.4730 O.3       1 <0>        -0.5504
      7 C5          2.0419   -0.6931    1.1424 C.2       1 <0>         0.7084
      8 O2          2.6283   -1.1042    2.1249 O.2       1 <0>        -0.5468
      9 N2          2.7209   -0.4556    0.0026 N.am      1 <0>        -0.6779
     10 C6          4.1104   -0.5685   -0.0175 C.ar      1 <0>         0.1253
     11 C7          4.8367   -0.4092    1.1585 C.ar      1 <0>        -0.1213
     12 C8          6.2083   -0.5198    1.1433 C.ar      1 <0>        -0.0718
     13 C9          6.8739   -0.7928   -0.0568 C.ar      1 <0>        -0.1249
     14 C10         6.1415   -0.9527   -1.2384 C.ar      1 <0>        -0.0967
     15 C11         4.7680   -0.8462   -1.2144 C.ar      1 <0>         0.0403
     16 F1          4.0586   -1.0056   -2.3531 F         1 <0>        -0.1511
     17 C12         8.3411   -0.9112   -0.0763 C.2       1 <0>         0.5223
     18 O3          8.9800   -0.7708    0.9575 O.co2     1 <0>        -0.6834
     19 O4          8.9216   -1.1500   -1.1264 O.co2     1 <0>        -0.6861
     20 H1          1.0254    1.9185    0.0136 H         1 <0>         0.0603
     21 H2         -0.5263    1.9191   -0.8585 H         1 <0>         0.0683
     22 H3         -0.5057    1.9038    0.9213 H         1 <0>         0.0604
     23 H4         -1.0197   -0.3475    0.0179 H         1 <0>         0.0809
     24 H5          0.5114   -0.3328   -0.8898 H         1 <0>         0.0726
     25 H6          0.6315   -0.5705    3.2866 H         1 <0>         0.0938
     26 H7         -0.8775   -0.0565    2.4948 H         1 <0>         0.0898
     27 H8         -1.1446   -2.3472    3.3163 H         1 <0>         0.0514
     28 H9         -1.1053   -2.3680    1.5369 H         1 <0>         0.0410
     29 H10         0.3582   -4.0042    2.4786 H         1 <0>         0.3721
     30 H11         2.2428   -0.2061   -0.8037 H         1 <0>         0.4025
     31 H12         4.3232   -0.1981    2.0848 H         1 <0>         0.1493
     32 H13         6.7706   -0.3955    2.0569 H         1 <0>         0.1362
     33 H14         6.6517   -1.1635   -2.1667 H         1 <0>         0.1418
@<TRIPOS>BOND
     1    1    2 1
     2    1   20 1
     3    1   21 1
     4    1   22 1
     5    2    3 1
     6    2   23 1
     7    2   24 1
     8    3    4 1
     9    3    7 am
    10    4    5 1
    11    4   25 1
    12    4   26 1
    13    5    6 1
    14    5   27 1
    15    5   28 1
    16    6   29 1
    17    7    8 2
    18    7    9 am
    19    9   10 1
    20    9   30 1
    21   10   15 ar
    22   10   11 ar
    23   11   12 ar
    24   11   31 1
    25   12   13 ar
    26   12   32 1
    27   13   14 ar
    28   13   17 1
    29   14   15 ar
    30   14   33 1
    31   15   16 1
    32   17   18 2
    33   17   19 1
@<TRIPOS>MOLECULE
ZINC17064406
   38    39     0     0     0
SMALL
USER_CHARGES
1-[(1S,2R,3R,4S)-2,3-dihydroxy-4-(hydroxymethyl)cyclopentyl]-4-dimethylamino-pyrimidin-2-one
@<TRIPOS>ATOM
      1 C1         -2.2257   -2.9955   -5.8239 C.3       1 <0>         0.0809
      2 N1         -3.0063   -1.9983   -5.0875 N.pl3     1 <0>        -0.5854
      3 C2         -4.1891   -1.3926   -5.7043 C.3       1 <0>         0.0830
      4 C3         -2.6288   -1.6307   -3.8168 C.2       1 <0>         0.4985
      5 C4         -3.3770   -0.6710   -3.1045 C.2       1 <0>        -0.3130
      6 C5         -2.9862   -0.3312   -1.8534 C.2       1 <0>         0.1998
      7 N2         -1.8767   -0.9154   -1.3200 N.am      1 <0>        -0.5302
      8 C6         -1.1835   -1.8282   -2.0251 C.2       1 <0>         0.6530
      9 O1         -0.1953   -2.3444   -1.5302 O.2       1 <0>        -0.5322
     10 N3         -1.5585   -2.1768   -3.2546 N.2       1 <0>        -0.6182
     11 C7         -1.4396   -0.5523    0.0303 C.3       1 <0>         0.1409
     12 H1         -2.1178    0.1804    0.4677 H         1 <0>         0.1163
     13 C8         -1.3489   -1.8113    0.9291 C.3       1 <0>        -0.1304
     14 C9         -0.3451   -1.3775    2.0261 C.3       1 <0>        -0.0763
     15 H2         -0.8445   -0.7787    2.7878 H         1 <0>         0.0935
     16 C10         0.6980   -0.5288    1.2702 C.3       1 <0>         0.0915
     17 H3          1.0209    0.3065    1.8916 H         1 <0>         0.0690
     18 C11         0.0021   -0.0041    0.0020 C.3       1 <0>         0.0557
     19 H4          0.5215   -0.3653   -0.8856 H         1 <0>         0.0883
     20 O2         -0.0173    1.4248    0.0099 O.3       1 <0>        -0.5654
     21 O3          1.8217   -1.3361    0.9134 O.3       1 <0>        -0.5414
     22 C12         0.3184   -2.6021    2.6594 C.3       1 <0>         0.0929
     23 O4          1.2175   -2.1790    3.6864 O.3       1 <0>        -0.5712
     24 H5         -1.3902   -3.3296   -5.2087 H         1 <0>         0.0992
     25 H6         -2.8611   -3.8471   -6.0672 H         1 <0>         0.0617
     26 H7         -1.8448   -2.5518   -6.7438 H         1 <0>         0.0613
     27 H8         -3.8957   -0.4946   -6.2479 H         1 <0>         0.0627
     28 H9         -4.6430   -2.1034   -6.3949 H         1 <0>         0.0799
     29 H10        -4.9086   -1.1292   -4.9290 H         1 <0>         0.0778
     30 H11        -4.2508   -0.2172   -3.5483 H         1 <0>         0.1558
     31 H12        -3.5455    0.3980   -1.2859 H         1 <0>         0.1736
     32 H13        -0.9621   -2.6604    0.3656 H         1 <0>         0.1071
     33 H14        -2.3191   -2.0489    1.3654 H         1 <0>         0.0800
     34 H15         0.8606    1.8301    0.0037 H         1 <0>         0.3835
     35 H16         2.5038   -0.8635    0.4169 H         1 <0>         0.3739
     36 H17        -0.4469   -3.2480    3.0899 H         1 <0>         0.0410
     37 H18         0.8705   -3.1513    1.8967 H         1 <0>         0.0635
     38 H19         1.6747   -2.9050    4.1324 H         1 <0>         0.3792
@<TRIPOS>BOND
     1    1    2 1
     2    1   24 1
     3    1   25 1
     4    1   26 1
     5    2    3 1
     6    2    4 1
     7    3   27 1
     8    3   28 1
     9    3   29 1
    10    4   10 2
    11    4    5 1
    12    5    6 2
    13    5   30 1
    14    6    7 1
    15    6   31 1
    16    7    8 am
    17    7   11 1
    18    8    9 2
    19    8   10 1
    20   11   12 1
    21   11   18 1
    22   11   13 1
    23   13   14 1
    24   13   32 1
    25   13   33 1
    26   14   15 1
    27   14   16 1
    28   14   22 1
    29   16   17 1
    30   16   18 1
    31   16   21 1
    32   18   19 1
    33   18   20 1
    34   20   34 1
    35   21   35 1
    36   22   23 1
    37   22   36 1
    38   22   37 1
    39   23   38 1
@<TRIPOS>MOLECULE
ZINC39098525
   29    29     0     0     0
SMALL
USER_CHARGES

@<TRIPOS>ATOM
      1 C1         -0.0173    1.4248    0.0099 C.3       1 <0>         0.0469
      2 O1          0.0021   -0.0041    0.0020 O.3       1 <0>        -0.3230
      3 C2         -1.1882   -0.6311    0.0100 C.2       1 <0>         0.6019
      4 O2         -2.2154    0.0164    0.0233 O.2       1 <0>        -0.5427
      5 O3         -1.2403   -1.9754    0.0033 O.3       1 <0>        -0.3171
      6 C3         -2.5377   -2.5743    0.0125 C.3       1 <0>         0.0933
      7 C4         -2.3963   -4.0977    0.0029 C.3       1 <0>         0.1164
      8 H1         -1.7838   -4.4006   -0.8464 H         1 <0>         0.0885
      9 C5         -3.7819   -4.7384   -0.1125 C.3       1 <0>         0.0890
     10 H2         -4.4080   -4.4038    0.7146 H         1 <0>         0.0809
     11 C6         -3.6370   -6.2625   -0.0608 C.3       1 <0>         0.0774
     12 H3         -3.0523   -6.6024   -0.9156 H         1 <0>         0.0733
     13 C7         -2.9224   -6.6527    1.2367 C.3       1 <0>        -0.1785
     14 C8         -1.5700   -5.9380    1.3000 C.3       1 <0>         0.2713
     15 H4         -0.9467   -6.2651    0.4678 H         1 <0>         0.0615
     16 O4         -1.7741   -4.5262    1.2160 O.3       1 <0>        -0.3924
     17 O5         -0.9216   -6.2534    2.5337 O.3       1 <0>        -0.5395
     18 O6         -4.9313   -6.8671   -0.0961 O.3       1 <0>        -0.5591
     19 O7         -4.3829   -4.3564   -1.3514 O.3       1 <0>        -0.5550
     20 H5          1.0053    1.8021    0.0021 H         1 <0>         0.1157
     21 H6         -0.5445    1.7859   -0.8732 H         1 <0>         0.0679
     22 H7         -0.5275    1.7763    0.9067 H         1 <0>         0.0679
     23 H8         -3.0744   -2.2648    0.9093 H         1 <0>         0.0859
     24 H9         -3.0914   -2.2553   -0.8706 H         1 <0>         0.1054
     25 H10        -3.5311   -6.3567    2.0910 H         1 <0>         0.0936
     26 H11        -2.7657   -7.7312    1.2560 H         1 <0>         0.0920
     27 H12        -0.0572   -5.8339    2.6423 H         1 <0>         0.3930
     28 H13        -4.9149   -7.8335   -0.0665 H         1 <0>         0.3896
     29 H14        -5.2649   -4.7272   -1.4915 H         1 <0>         0.3959
@<TRIPOS>BOND
     1    1    2 1
     2    1   20 1
     3    1   21 1
     4    1   22 1
     5    2    3 1
     6    3    4 2
     7    3    5 1
     8    5    6 1
     9    6    7 1
    10    6   23 1
    11    6   24 1
    12    7    8 1
    13    7   16 1
    14    7    9 1
    15    9   10 1
    16    9   11 1
    17    9   19 1
    18   11   12 1
    19   11   13 1
    20   11   18 1
    21   13   14 1
    22   13   25 1
    23   13   26 1
    24   14   15 1
    25   14   16 1
    26   14   17 1
    27   17   27 1
    28   18   28 1
    29   19   29 1
@<TRIPOS>MOLECULE
ZINC42805819
   38    39     0     0     0
SMALL
USER_CHARGES

@<TRIPOS>ATOM
      1 C1         -0.5905   -0.8264    0.7638 C.3       1 <0>        -0.6491
      2 S1          0.5175   -2.0580    0.0248 S.o2      1 <0>         2.4994
      3 O1          1.6897   -2.1989    0.8157 O.2       1 <0>        -0.9349
      4 O2         -0.2229   -3.2003   -0.3829 O.2       1 <0>        -0.9315
      5 C2          1.0739   -1.3233   -1.4769 C.ar      1 <0>        -0.6139
      6 C3          0.3610   -1.5172   -2.6428 C.ar      1 <0>        -0.0309
      7 C4          0.7996   -0.9364   -3.8338 C.ar      1 <0>        -0.0999
      8 C5          1.9587   -0.1604   -3.8406 C.ar      1 <0>        -0.1218
      9 C6          2.6674    0.0287   -2.6641 C.ar      1 <0>         0.1976
     10 C7          2.2195   -0.5502   -1.4822 C.ar      1 <0>        -0.0807
     11 N1          3.8293    0.8046   -2.6655 N.pl3     1 <0>        -0.8732
     12 C8          0.0382   -1.1433   -5.0843 C.2       1 <0>         0.5633
     13 O3         -1.1766   -1.1043   -5.0698 O.2       1 <0>        -0.5223
     14 N2          0.6912   -1.3752   -6.2403 N.am      1 <0>        -0.6035
     15 C9         -0.0412   -1.4496   -7.5118 C.3       1 <0>         0.1074
     16 C10         0.3090   -2.7696   -8.2060 C.3       1 <0>        -0.1328
     17 C11         1.8288   -2.8788   -8.3487 C.3       1 <0>        -0.1154
     18 C12         2.4746   -2.8766   -6.9612 C.3       1 <0>         0.0909
     19 H1          2.0839   -3.7095   -6.3767 H         1 <0>         0.0631
     20 C13         2.1497   -1.5522   -6.2537 C.3       1 <0>         0.0658
     21 O4          3.8911   -3.0102   -7.0942 O.3       1 <0>        -0.5596
     22 H2         -0.0386    0.0957    0.9464 H         1 <0>         0.1322
     23 H3         -1.4173   -0.6262    0.0824 H         1 <0>         0.1344
     24 H4         -0.9813   -1.2087    1.7068 H         1 <0>         0.1353
     25 H5         -0.5359   -2.1187   -2.6336 H         1 <0>         0.1491
     26 H6          2.3030    0.2913   -4.7592 H         1 <0>         0.1370
     27 H7          2.7706   -0.3985   -0.5659 H         1 <0>         0.1467
     28 H8          4.1401    1.2110   -3.4896 H         1 <0>         0.4027
     29 H9          4.3251    0.9369   -1.8423 H         1 <0>         0.4050
     30 H10        -1.1133   -1.4115   -7.3188 H         1 <0>         0.0996
     31 H11         0.2474   -0.6138   -8.1492 H         1 <0>         0.0733
     32 H12        -0.0613   -3.6036   -7.6097 H         1 <0>         0.0719
     33 H13        -0.1519   -2.7949   -9.1934 H         1 <0>         0.0872
     34 H14         2.0794   -3.8059   -8.8643 H         1 <0>         0.0766
     35 H15         2.2013   -2.0313   -8.9240 H         1 <0>         0.0734
     36 H16         2.6133   -0.7246   -6.7906 H         1 <0>         0.0803
     37 H17         2.5236   -1.5817   -5.2303 H         1 <0>         0.0963
     38 H18         4.3664   -3.0163   -6.2521 H         1 <0>         0.3807
@<TRIPOS>BOND
     1    1    2 1
     2    1   22 1
     3    1   23 1
     4    1   24 1
     5    2    3 2
     6    2    4 2
     7    2    5 1
     8    5   10 ar
     9    5    6 ar
    10    6    7 ar
    11    6   25 1
    12    7    8 ar
    13    7   12 1
    14    8    9 ar
    15    8   26 1
    16    9   10 ar
    17    9   11 1
    18   10   27 1
    19   11   28 1
    20   11   29 1
    21   12   13 2
    22   12   14 am
    23   14   20 1
    24   14   15 1
    25   15   16 1
    26   15   30 1
    27   15   31 1
    28   16   17 1
    29   16   32 1
    30   16   33 1
    31   17   18 1
    32   17   34 1
    33   17   35 1
    34   18   19 1
    35   18   20 1
    36   18   21 1
    37   20   36 1
    38   20   37 1
    39   21   38 1
@<TRIPOS>MOLECULE
ZINC50306287
   32    32     0     0     0
SMALL
USER_CHARGES

@<TRIPOS>ATOM
      1 C1          0.1502   -1.4880   -6.0650 C.3       1 <0>        -0.0737
      2 C2          0.1381   -2.4010   -4.8660 C.2       1 <0>        -0.0764
      3 C3          0.0955   -2.0210   -3.5614 C.2       1 <0>         0.1618
      4 C4          0.1009   -3.2283   -2.8163 C.2       1 <0>        -0.0694
      5 N1          0.1448   -4.2199   -3.6859 N.2       1 <0>        -0.2377
      6 N2          0.1619   -3.7594   -4.8849 N.pl3     1 <0>        -0.3624
      7 H1          0.1900   -4.3029   -5.6879 H         1 <0>         0.4481
      8 C5          0.0652   -3.3518   -1.3473 C.2       1 <0>         0.6139
      9 O1          0.1303   -2.3566   -0.6517 O.2       1 <0>        -0.5287
     10 N3         -0.0397   -4.5678   -0.7757 N.am      1 <0>        -0.6024
     11 C6         -0.1718   -4.6846    0.6787 C.3       1 <0>         0.1171
     12 C7         -1.6528   -4.7836    1.0500 C.3       1 <0>        -0.0429
     13 C8         -1.7855   -4.9009    2.5113 C.1       1 <0>         0.2056
     14 N4         -1.8880   -4.9915    3.6390 N.1       1 <0>        -0.4261
     15 C9         -0.0216   -5.7729   -1.6086 C.3       1 <0>         0.1063
     16 C10         1.4270   -6.1672   -1.9036 C.3       1 <0>        -0.0387
     17 C11         1.4452   -7.3780   -2.7406 C.1       1 <0>         0.2122
     18 N5          1.4593   -8.3124   -3.3865 N.1       1 <0>        -0.4315
     19 N6          0.0548   -0.7124   -3.0584 N.pl3     1 <0>        -0.8528
     20 H2         -0.8741   -1.2859   -6.3780 H         1 <0>         0.0721
     21 H3          0.6417   -0.5510   -5.8032 H         1 <0>         0.0775
     22 H4          0.6917   -1.9669   -6.8808 H         1 <0>         0.0695
     23 H5          0.3490   -5.5791    1.0202 H         1 <0>         0.0922
     24 H6          0.2642   -3.8063    1.1548 H         1 <0>         0.1028
     25 H7         -2.1736   -3.8891    0.7085 H         1 <0>         0.1133
     26 H8         -2.0887   -5.6619    0.5738 H         1 <0>         0.1121
     27 H9         -0.5194   -6.5866   -1.0813 H         1 <0>         0.0904
     28 H10        -0.5422   -5.5748   -2.5455 H         1 <0>         0.1184
     29 H11         1.9249   -5.3534   -2.4310 H         1 <0>         0.1101
     30 H12         1.9476   -6.3652   -0.9667 H         1 <0>         0.1084
     31 H13         0.0549    0.0419   -3.6684 H         1 <0>         0.3982
     32 H14         0.0265   -0.5615   -2.1006 H         1 <0>         0.4127
@<TRIPOS>BOND
     1    1    2 1
     2    1   20 1
     3    1   21 1
     4    1   22 1
     5    2    6 1
     6    2    3 2
     7    3    4 1
     8    3   19 1
     9    4    5 2
    10    4    8 1
    11    5    6 1
    12    6    7 1
    13    8    9 2
    14    8   10 am
    15   10   11 1
    16   10   15 1
    17   11   12 1
    18   11   23 1
    19   11   24 1
    20   12   13 1
    21   12   25 1
    22   12   26 1
    23   13   14 3
    24   15   16 1
    25   15   27 1
    26   15   28 1
    27   16   17 1
    28   16   29 1
    29   16   30 1
    30   17   18 3
    31   19   31 1
    32   19   32 1
@<TRIPOS>MOLECULE
ZINC58849280
   35    35     0     0     0
SMALL
USER_CHARGES

@<TRIPOS>ATOM
      1 C1         -0.0187    1.5258    0.0104 C.3       1 <0>        -0.1468
      2 C2          0.0021   -0.0041    0.0020 C.3       1 <0>        -0.1074
      3 H1         -1.0203   -0.3818    0.0098 H         1 <0>         0.0748
      4 C3          0.7197   -0.4983   -1.2561 C.3       1 <0>        -0.1164
      5 C4          0.7122   -2.0284   -1.2819 C.3       1 <0>        -0.1373
      6 C5          1.4632   -2.5595   -0.0568 C.3       1 <0>         0.1043
      7 N1          0.8694   -1.9734    1.1526 N.am      1 <0>        -0.6141
      8 C6          0.7443   -0.5122    1.2421 C.3       1 <0>         0.1168
      9 C7          0.4467   -2.7613    2.1611 C.2       1 <0>         0.5152
     10 O1         -0.0418   -2.2654    3.1542 O.2       1 <0>        -0.5087
     11 C8          0.5811   -4.2586    2.0547 C.3       1 <0>         0.0444
     12 O2          0.0664   -4.8684    3.2401 O.3       1 <0>        -0.3367
     13 C9          0.1468   -6.2952    3.2416 C.3       1 <0>         0.0501
     14 C10        -0.4208   -6.8289    4.5316 C.2       1 <0>         0.5119
     15 O3         -0.8517   -6.0629    5.3673 O.2       1 <0>        -0.4963
     16 N2         -0.4495   -8.1575    4.7565 N.am      1 <0>        -0.5796
     17 N3         -0.9640   -8.6412    5.9258 N.3       1 <0>        -0.6010
     18 H2          1.0039    1.9031    0.0027 H         1 <0>         0.0575
     19 H3         -0.5459    1.8868   -0.8726 H         1 <0>         0.0600
     20 H4         -0.5289    1.8773    0.9072 H         1 <0>         0.0592
     21 H5          0.2072   -0.1177   -2.1396 H         1 <0>         0.0681
     22 H6          1.7492   -0.1402   -1.2513 H         1 <0>         0.0661
     23 H7         -0.3167   -2.3876   -1.2618 H         1 <0>         0.0685
     24 H8          1.2029   -2.3794   -2.1897 H         1 <0>         0.0787
     25 H9          1.3762   -3.6453   -0.0173 H         1 <0>         0.0828
     26 H10         2.5140   -2.2771   -0.1216 H         1 <0>         0.0742
     27 H11         1.7365   -0.0628    1.2837 H         1 <0>         0.0695
     28 H12         0.1830   -0.2472    2.1380 H         1 <0>         0.0944
     29 H13         0.0196   -4.6132    1.1904 H         1 <0>         0.0842
     30 H14         1.6324   -4.5216    1.9379 H         1 <0>         0.0836
     31 H15        -0.4237   -6.6921    2.4019 H         1 <0>         0.0866
     32 H16         1.1891   -6.6005    3.1494 H         1 <0>         0.0840
     33 H17        -0.1049   -8.7701    4.0880 H         1 <0>         0.4011
     34 H18        -0.9185   -9.6489    5.9513 H         1 <0>         0.3595
     35 H19        -0.4936   -8.2378    6.7221 H         1 <0>         0.3489
@<TRIPOS>BOND
     1    1    2 1
     2    1   18 1
     3    1   19 1
     4    1   20 1
     5    2    3 1
     6    2    8 1
     7    2    4 1
     8    4    5 1
     9    4   21 1
    10    4   22 1
    11    5    6 1
    12    5   23 1
    13    5   24 1
    14    6    7 1
    15    6   25 1
    16    6   26 1
    17    7    8 1
    18    7    9 am
    19    8   27 1
    20    8   28 1
    21    9   10 2
    22    9   11 1
    23   11   12 1
    24   11   29 1
    25   11   30 1
    26   12   13 1
    27   13   14 1
    28   13   31 1
    29   13   32 1
    30   14   15 2
    31   14   16 am
    32   16   17 1
    33   16   33 1
    34   17   34 1
    35   17   35 1
@<TRIPOS>MOLECULE
ZINC03956727
   30    30     0     0     0
SMALL
USER_CHARGES
6-(hydroxymethyl)-4-methylsulfonyloxy-tetrahydropyran-2,3,5-triol
@<TRIPOS>ATOM
      1 C1         -2.1477    5.1858    2.1366 C.3       1 <0>        -0.7044
      2 S1         -0.9368    5.5186    0.8276 S.o2      1 <0>         2.6071
      3 O1         -0.7027    6.9161    0.7211 O.2       1 <0>        -0.9272
      4 O2         -1.2374    4.7445   -0.3255 O.2       1 <0>        -0.9633
      5 O3          0.3722    4.9443    1.3504 O.3       1 <0>        -0.7019
      6 C2          0.4428    3.5179    1.2987 C.3       1 <0>         0.1264
      7 H1         -0.5638    3.1006    1.3235 H         1 <0>         0.1214
      8 C3          1.2417    3.0006    2.4990 C.3       1 <0>         0.0838
      9 H2          0.7197    3.2559    3.4212 H         1 <0>         0.0803
     10 C4          1.3792    1.4796    2.3933 C.3       1 <0>         0.0596
     11 H3          0.3909    1.0217    2.4318 H         1 <0>         0.0864
     12 O4          2.0120    1.1447    1.1565 O.3       1 <0>        -0.3629
     13 C5          1.2864    1.5618   -0.0018 C.3       1 <0>         0.2287
     14 H4          1.8234    1.2521   -0.8984 H         1 <0>         0.1159
     15 C6          1.1450    3.0861    0.0077 C.3       1 <0>         0.0671
     16 H5          0.5540    3.4025   -0.8518 H         1 <0>         0.1038
     17 O5          2.4404    3.6862   -0.0565 O.3       1 <0>        -0.5113
     18 O6         -0.0110    0.9628    0.0073 O.3       1 <0>        -0.5748
     19 C7          2.2272    0.9618    3.5568 C.3       1 <0>         0.0813
     20 O7          2.2590   -0.4664    3.5244 O.3       1 <0>        -0.5624
     21 O8          2.5396    3.5985    2.5023 O.3       1 <0>        -0.5129
     22 H6         -1.8314    5.6762    3.0573 H         1 <0>         0.1345
     23 H7         -3.1223    5.5706    1.8363 H         1 <0>         0.1381
     24 H8         -2.2169    4.1108    2.3028 H         1 <0>         0.1257
     25 H9          2.9437    3.4517   -0.8482 H         1 <0>         0.3787
     26 H10         0.0021   -0.0041    0.0020 H         1 <0>         0.3947
     27 H11         3.2418    1.3500    3.4678 H         1 <0>         0.0624
     28 H12         1.7924    1.2943    4.4994 H         1 <0>         0.0660
     29 H13         2.7800   -0.8645    4.2352 H         1 <0>         0.3862
     30 H14         3.1011    3.3154    3.2369 H         1 <0>         0.3728
@<TRIPOS>BOND
     1    1    2 1
     2    1   22 1
     3    1   23 1
     4    1   24 1
     5    2    3 2
     6    2    4 2
     7    2    5 1
     8    5    6 1
     9    6    7 1
    10    6   15 1
    11    6    8 1
    12    8    9 1
    13    8   10 1
    14    8   21 1
    15   10   11 1
    16   10   12 1
    17   10   19 1
    18   12   13 1
    19   13   14 1
    20   13   15 1
    21   13   18 1
    22   15   16 1
    23   15   17 1
    24   17   25 1
    25   18   26 1
    26   19   20 1
    27   19   27 1
    28   19   28 1
    29   20   29 1
    30   21   30 1
@<TRIPOS>MOLECULE
ZINC27982019
   30    30     0     0     0
SMALL
USER_CHARGES
2-chloro-N-[(2R,3S,4R,5S,6R)-2,4,5-trihydroxy-6-(hydroxymethyl)tetrahydropyran-3-yl]acetamide
@<TRIPOS>ATOM
      1 C1         -1.4332   -0.5337   -0.0158 C.3       1 <0>         0.1009
      2 C2          0.0021   -0.0041    0.0020 C.3       1 <0>         0.1134
      3 H1          0.5440   -0.2923   -0.9108 H         1 <0>         0.0761
      4 C3          0.7175   -0.5102    1.2573 C.3       1 <0>         0.1063
      5 H2          0.1539   -0.2632    2.1691 H         1 <0>         0.0694
      6 C4          2.1334    0.0727    1.2986 C.3       1 <0>         0.0828
      7 H3          2.7558   -0.3194    0.4808 H         1 <0>         0.0820
      8 C5          2.0458    1.6014    1.2560 C.3       1 <0>         0.1090
      9 H4          3.0492    2.0518    1.2722 H         1 <0>         0.1082
     10 C6          1.2791    2.0260    0.0007 C.3       1 <0>         0.2637
     11 H5          1.7771    1.7286   -0.9339 H         1 <0>         0.0560
     12 O1         -0.0173    1.4248    0.0099 O.3       1 <0>        -0.3933
     13 O2          1.1446    3.4485   -0.0172 O.3       1 <0>        -0.5520
     14 N1          1.3421    2.0848    2.4464 N.am      1 <0>        -0.7187
     15 C7          1.5636    3.3349    2.8990 C.2       1 <0>         0.5107
     16 O3          2.3455    4.0595    2.3207 O.2       1 <0>        -0.5005
     17 C8          0.8396    3.8322    4.1236 C.3       1 <0>        -0.0653
     18 Cl1         1.3450    5.5272    4.4736 Cl        1 <0>        -0.1308
     19 O4          2.7834   -0.3354    2.5040 O.3       1 <0>        -0.5896
     20 O5          0.7879   -1.9371    1.2242 O.3       1 <0>        -0.5875
     21 O6         -2.0645   -0.1576   -1.2414 O.3       1 <0>        -0.5967
     22 H6         -1.4204   -1.6304    0.0686 H         1 <0>         0.0712
     23 H7         -1.9919   -0.1073    0.8304 H         1 <0>         0.0504
     24 H8          0.6185    3.9408   -0.8484 H         1 <0>         0.4164
     25 H9          0.6329    1.4276    2.9709 H         1 <0>         0.4179
     26 H10        -0.2455    3.8025    3.9454 H         1 <0>         0.1207
     27 H11         1.0879    3.1908    4.9821 H         1 <0>         0.1203
     28 H12         3.8142   -0.0112    2.7099 H         1 <0>         0.4207
     29 H13         1.2707   -2.4832    2.0480 H         1 <0>         0.4240
     30 H14        -3.1066   -0.4512   -1.4360 H         1 <0>         0.4139
@<TRIPOS>BOND
     1    1    2 1
     2    1   21 1
     3    1   22 1
     4    1   23 1
     5    2    3 1
     6    2   12 1
     7    2    4 1
     8    4    5 1
     9    4    6 1
    10    4   20 1
    11    6    7 1
    12    6    8 1
    13    6   19 1
    14    8    9 1
    15    8   10 1
    16    8   14 1
    17   10   11 1
    18   10   12 1
    19   10   13 1
    20   13   24 1
    21   14   15 am
    22   14   25 1
    23   15   16 2
    24   15   17 1
    25   17   18 1
    26   17   26 1
    27   17   27 1
    28   19   28 1
    29   20   29 1
    30   21   30 1
@<TRIPOS>MOLECULE
ZINC39326253
   29    29     0     0     0
SMALL
USER_CHARGES

@<TRIPOS>ATOM
      1 C1         -0.0178    1.4608    0.0101 C.3       1 <0>         0.0863
      2 N1          0.0021   -0.0041    0.0020 N.am      1 <0>        -0.7130
      3 C2         -1.1558   -0.6938    0.0094 C.2       1 <0>         0.5247
      4 O1         -2.2142   -0.1017    0.0227 O.2       1 <0>        -0.5186
      5 C3         -1.1354   -2.2006    0.0011 C.3       1 <0>         0.0909
      6 H1         -0.3506   -2.5778    0.6568 H         1 <0>         0.1587
      7 C4         -0.9548   -2.7271   -1.4100 C.2       1 <0>         0.4078
      8 N2         -2.0514   -3.4373   -1.6697 N.2       1 <0>        -0.5849
      9 C5         -2.8893   -3.4488   -0.6678 C.2       1 <0>         0.4385
     10 N3         -2.4494   -2.7424    0.3947 N.pl3     1 <0>        -0.6806
     11 N4          0.0777   -2.5226   -2.2162 N.2       1 <0>        -0.3939
     12 N5          0.0863   -3.0409   -3.3975 N.2       1 <0>        -0.2032
     13 C6          1.1170   -2.8367   -4.2022 C.2       1 <0>         0.1594
     14 C7          2.2227   -2.0405   -3.7616 C.1       1 <0>         0.2433
     15 N6          3.0998   -1.4089   -3.4121 N.1       1 <0>        -0.3811
     16 C8          1.1268   -3.4275   -5.5489 C.2       1 <0>         0.5856
     17 O2          2.0742   -3.2399   -6.2886 O.2       1 <0>        -0.5213
     18 N7          0.0861   -4.1769   -5.9635 N.am      1 <0>        -0.7100
     19 C9          0.0959   -4.7655   -7.3051 C.3       1 <0>         0.0858
     20 H2          1.0048    1.8381    0.0023 H         1 <0>         0.0844
     21 H3         -0.5450    1.8219   -0.8730 H         1 <0>         0.0644
     22 H4         -0.5280    1.8123    0.9069 H         1 <0>         0.0663
     23 H5          0.8486   -0.4776   -0.0086 H         1 <0>         0.4108
     24 H6         -3.8351   -3.9698   -0.6868 H         1 <0>         0.2273
     25 H7         -0.6693   -4.3265   -5.3737 H         1 <0>         0.4148
     26 H8         -0.8219   -5.3329   -7.4596 H         1 <0>         0.0815
     27 H9          0.1622   -3.9720   -8.0495 H         1 <0>         0.0651
     28 H10         0.9546   -5.4295   -7.4043 H         1 <0>         0.0653
     29 H11        -2.9027   -2.6153    1.2427 H         1 <0>         0.4457
@<TRIPOS>BOND
     1    1    2 1
     2    1   20 1
     3    1   21 1
     4    1   22 1
     5    2    3 am
     6    2   23 1
     7    3    4 2
     8    3    5 1
     9    5    6 1
    10    5   10 1
    11    5    7 1
    12    7    8 1
    13    7   11 2
    14    8    9 2
    15    9   10 1
    16    9   24 1
    17   10   29 1
    18   11   12 1
    19   12   13 2
    20   13   14 1
    21   13   16 1
    22   14   15 3
    23   16   17 2
    24   16   18 am
    25   18   19 1
    26   18   25 1
    27   19   26 1
    28   19   27 1
    29   19   28 1
@<TRIPOS>MOLECULE
ZINC50242051
   29    30     0     0     0
SMALL
USER_CHARGES

@<TRIPOS>ATOM
      1 C1         -0.0160    1.3279    0.0093 C.2       1 <0>         0.3158
      2 C2          1.1549    2.0273    0.0019 C.2       1 <0>        -0.9723
      3 C3          2.3695    1.3172   -0.0134 C.2       1 <0>         0.5944
      4 O1          3.4361    1.9094   -0.0200 O.2       1 <0>        -0.5679
      5 N1          2.3313   -0.0324   -0.0203 N.am      1 <0>        -0.6634
      6 H1          3.1564   -0.5424   -0.0305 H         1 <0>         0.4067
      7 C4          1.1342   -0.6739   -0.0123 C.2       1 <0>         0.6269
      8 O2          1.1055   -2.0222   -0.0192 O.3       1 <0>        -0.6293
      9 N2          0.0021   -0.0041    0.0020 N.2       1 <0>        -0.6060
     10 S1          1.1467    3.7892    0.0108 S.o2      1 <0>         2.7382
     11 O3         -0.1987    4.1880    0.2351 O.2       1 <0>        -0.9712
     12 O4          2.2130    4.1961    0.8573 O.2       1 <0>        -0.9395
     13 N3          1.5396    4.2884   -1.5185 N.pl3     1 <0>        -1.0105
     14 C5          2.9039    4.5452   -2.0146 C.3       1 <0>         0.1189
     15 C6          2.8077    4.3659   -3.5502 C.3       1 <0>        -0.1482
     16 C7          1.4062    4.9621   -3.8463 C.3       1 <0>         0.0111
     17 H2          1.4586    6.0477   -3.9292 H         1 <0>         0.1604
     18 C8          0.5860    4.5429   -2.6082 C.3       1 <0>         0.1056
     19 N4          0.8398    4.3761   -5.0685 N.4       1 <0>        -0.6303
     20 H3         -0.9588    1.8545    0.0257 H         1 <0>         0.1608
     21 H4          3.2114    5.5619   -1.7698 H         1 <0>         0.0827
     22 H5          3.6033    3.8242   -1.5915 H         1 <0>         0.1104
     23 H6          3.5883    4.9314   -4.0592 H         1 <0>         0.1103
     24 H7          2.8496    3.3117   -3.8239 H         1 <0>         0.0983
     25 H8          0.0207    3.6365   -2.8253 H         1 <0>         0.0832
     26 H9         -0.0933    5.3473   -2.3262 H         1 <0>         0.1029
     27 H10         0.7737    3.3749   -4.9621 H         1 <0>         0.4365
     28 H11        -0.0799    4.7587   -5.2299 H         1 <0>         0.4376
     29 H12         1.4364    4.5923   -5.8529 H         1 <0>         0.4379
@<TRIPOS>BOND
     1    1    9 1
     2    1    2 2
     3    1   20 1
     4    2    3 1
     5    2   10 1
     6    3    4 2
     7    3    5 am
     8    5    6 1
     9    5    7 1
    10    7    8 1
    11    7    9 2
    12   10   11 2
    13   10   12 2
    14   10   13 1
    15   13   18 1
    16   13   14 1
    17   14   15 1
    18   14   21 1
    19   14   22 1
    20   15   16 1
    21   15   23 1
    22   15   24 1
    23   16   17 1
    24   16   18 1
    25   16   19 1
    26   18   25 1
    27   18   26 1
    28   19   27 1
    29   19   28 1
    30   19   29 1
@<TRIPOS>MOLECULE
ZINC62810202
   38    39     0     0     0
SMALL
USER_CHARGES

@<TRIPOS>ATOM
      1 C1          0.2242    1.2575   -0.0066 C.3       1 <0>         0.0527
      2 C2          1.7018    1.6554    0.0218 C.3       1 <0>         0.0537
      3 N1          2.2917    1.2476    1.3045 N.3       1 <0>        -0.5375
      4 C3          2.1744   -0.2046    1.4968 C.3       1 <0>         0.0501
      5 C4          0.6968   -0.6026    1.4684 C.3       1 <0>         0.0575
      6 N2          0.1069   -0.1947    0.1857 N.3       1 <0>        -0.5302
      7 C5         -1.2937   -0.6271    0.0893 C.3       1 <0>         0.0533
      8 C6         -1.7242   -0.6380   -1.3789 C.3       1 <0>         0.0822
      9 O1         -0.9575   -1.6099   -2.0929 O.3       1 <0>        -0.5605
     10 C7          3.6923    1.6800    1.4009 C.3       1 <0>         0.0821
     11 H1          4.2529    1.2234    0.5852 H         1 <0>         0.0819
     12 C8          3.7467    3.2156    1.2377 C.3       1 <0>        -0.5670
     13 S1          3.8560    3.7612    2.9977 S.o2      1 <0>         2.3731
     14 O2          2.5546    3.7737    3.5682 O.2       1 <0>        -0.9167
     15 O3          4.6738    4.9203    3.0811 O.2       1 <0>        -0.9378
     16 C9          4.7907    2.3043    3.6390 C.3       1 <0>        -0.5685
     17 C10         4.2639    1.1836    2.7205 C.3       1 <0>         0.0881
     18 H2          3.4860    0.6358    3.2523 H         1 <0>         0.0760
     19 N3          5.3689    0.2589    2.4344 N.3       1 <0>        -0.8395
     20 H3         -0.3070    1.7742    0.7927 H         1 <0>         0.0471
     21 H4         -0.2083    1.5330   -0.9685 H         1 <0>         0.0816
     22 H5          2.2276    1.1598   -0.7943 H         1 <0>         0.0506
     23 H6          1.7896    2.7360   -0.0917 H         1 <0>         0.0858
     24 H7          2.7056   -0.7213    0.6975 H         1 <0>         0.0501
     25 H8          2.6068   -0.4801    2.4586 H         1 <0>         0.0818
     26 H9          0.6090   -1.6831    1.5819 H         1 <0>         0.0826
     27 H10         0.1710   -0.1069    2.2845 H         1 <0>         0.0459
     28 H11        -1.3938   -1.6299    0.5047 H         1 <0>         0.0818
     29 H12        -1.9262    0.0625    0.6483 H         1 <0>         0.0531
     30 H13        -2.7826   -0.8899   -1.4453 H         1 <0>         0.0484
     31 H14        -1.5572    0.3474   -1.8138 H         1 <0>         0.0441
     32 H15        -1.1777   -1.6716   -3.0324 H         1 <0>         0.3752
     33 H16         4.6313    3.5190    0.6777 H         1 <0>         0.1443
     34 H17         2.8387    3.5919    0.7665 H         1 <0>         0.1486
     35 H18         5.8648    2.4423    3.5149 H         1 <0>         0.1484
     36 H19         4.5407    2.1063    4.6813 H         1 <0>         0.1392
     37 H20         5.7758   -0.0933    3.2879 H         1 <0>         0.3523
     38 H21         5.0630   -0.4973    1.8406 H         1 <0>         0.3460
@<TRIPOS>BOND
     1    1    6 1
     2    1    2 1
     3    1   20 1
     4    1   21 1
     5    2    3 1
     6    2   22 1
     7    2   23 1
     8    3    4 1
     9    3   10 1
    10    4    5 1
    11    4   24 1
    12    4   25 1
    13    5    6 1
    14    5   26 1
    15    5   27 1
    16    6    7 1
    17    7    8 1
    18    7   28 1
    19    7   29 1
    20    8    9 1
    21    8   30 1
    22    8   31 1
    23    9   32 1
    24   10   11 1
    25   10   17 1
    26   10   12 1
    27   12   13 1
    28   12   33 1
    29   12   34 1
    30   13   14 2
    31   13   15 2
    32   13   16 1
    33   16   17 1
    34   16   35 1
    35   16   36 1
    36   17   18 1
    37   17   19 1
    38   19   37 1
    39   19   38 1
@<TRIPOS>MOLECULE
ZINC06424973
   31    32     0     0     0
SMALL
USER_CHARGES
1-[4,5-dihydroxy-3-(hydroxymethyl)-1-cyclopent-2-enyl]-4-methoxy-1,3,5-triazin-2-one
@<TRIPOS>ATOM
      1 C1         -1.0725   -2.1165    0.0009 C.3       1 <0>         0.0390
      2 O1         -1.1608   -0.6902    0.0094 O.3       1 <0>        -0.2756
      3 C2          0.0021   -0.0041    0.0020 C.2       1 <0>         0.5824
      4 N1         -0.0161    1.3343    0.0094 N.2       1 <0>        -0.5696
      5 C3          1.1042    2.0140    0.0023 C.2       1 <0>         0.4602
      6 N2          2.2878    1.3641   -0.0125 N.am      1 <0>        -0.5263
      7 C4          2.3057    0.0151   -0.0203 C.2       1 <0>         0.6624
      8 O2          3.3670   -0.5847   -0.0345 O.2       1 <0>        -0.5171
      9 N3          1.1514   -0.6595   -0.0129 N.2       1 <0>        -0.6285
     10 C5          3.5436    2.1185   -0.0209 C.3       1 <0>         0.1468
     11 H1          4.3947    1.4376   -0.0209 H         1 <0>         0.1421
     12 C6          3.6097    3.0439    1.1718 C.2       1 <0>        -0.1389
     13 C7          3.3435    4.2761    0.8230 C.2       1 <0>        -0.1541
     14 C8          3.0578    4.3740   -0.6575 C.3       1 <0>         0.0967
     15 H2          1.9850    4.4553   -0.8327 H         1 <0>         0.0851
     16 C9          3.6019    3.0537   -1.2510 C.3       1 <0>         0.1020
     17 H3          4.6267    3.1755   -1.6017 H         1 <0>         0.1089
     18 O3          2.7573    2.5753   -2.2996 O.3       1 <0>        -0.5506
     19 O4          3.7421    5.4935   -1.2236 O.3       1 <0>        -0.5488
     20 C10         3.3248    5.4450    1.7739 C.3       1 <0>         0.1224
     21 O5          3.6392    4.9918    3.0922 O.3       1 <0>        -0.5680
     22 H4         -0.5288   -2.4521    0.8840 H         1 <0>         0.0710
     23 H5         -2.0758   -2.5426    0.0082 H         1 <0>         0.1117
     24 H6         -0.5458   -2.4426   -0.8959 H         1 <0>         0.0713
     25 H7          1.0809    3.0937    0.0084 H         1 <0>         0.2110
     26 H8          3.8450    2.7283    2.1776 H         1 <0>         0.1552
     27 H9          2.7613    3.1298   -3.0918 H         1 <0>         0.3963
     28 H10         3.4416    6.3490   -0.8876 H         1 <0>         0.3863
     29 H11         4.0625    6.1825    1.4577 H         1 <0>         0.0691
     30 H12         2.3337    5.8987    1.7725 H         1 <0>         0.0668
     31 H13         3.6454    5.6929    3.7581 H         1 <0>         0.3909
@<TRIPOS>BOND
     1    1    2 1
     2    1   22 1
     3    1   23 1
     4    1   24 1
     5    2    3 1
     6    3    9 2
     7    3    4 1
     8    4    5 2
     9    5    6 1
    10    5   25 1
    11    6    7 am
    12    6   10 1
    13    7    8 2
    14    7    9 1
    15   10   11 1
    16   10   16 1
    17   10   12 1
    18   12   13 2
    19   12   26 1
    20   13   14 1
    21   13   20 1
    22   14   15 1
    23   14   16 1
    24   14   19 1
    25   16   17 1
    26   16   18 1
    27   18   27 1
    28   19   28 1
    29   20   21 1
    30   20   29 1
    31   20   30 1
    32   21   31 1
@<TRIPOS>MOLECULE
ZINC02568035
   25    25     0     0     0
SMALL
USER_CHARGES

@<TRIPOS>ATOM
      1 C1          1.9740    0.8902    0.5080 C.3       1 <0>         0.3142
      2 N1          1.2859   -0.3914    0.3343 N.am      1 <0>        -0.7216
      3 C2          0.5508   -0.9035    1.3411 C.2       1 <0>         0.7170
      4 O1          0.5313   -0.3487    2.4229 O.2       1 <0>        -0.5610
      5 N2         -0.1628   -2.0306    1.1489 N.am      1 <0>        -0.6148
      6 C3         -0.0547   -2.7589   -0.1176 C.3       1 <0>         0.2944
      7 O2          1.1822   -3.4737   -0.1520 O.3       1 <0>        -0.5872
      8 C4         -1.0465   -2.5274    2.2064 C.3       1 <0>         0.3452
      9 H1         -1.3475   -3.5549    2.0019 H         1 <0>         0.1509
     10 C5         -2.2625   -1.6338    2.3489 C.2       1 <0>         0.5227
     11 O3         -3.1069   -1.4069    1.5091 O.2       1 <0>        -0.4577
     12 N3         -2.2101   -1.1445    3.6036 N.am      1 <0>        -0.6714
     13 C6         -1.1412   -1.6002    4.2667 C.2       1 <0>         0.7248
     14 O4         -0.8795   -1.2992    5.4148 O.2       1 <0>        -0.5324
     15 N4         -0.3869   -2.4324    3.5202 N.am      1 <0>        -0.7146
     16 O5          3.3225    0.6552    0.9182 O.3       1 <0>        -0.5911
     17 H2          1.9711    1.4351   -0.4360 H         1 <0>         0.0722
     18 H3          1.4602    1.4783    1.2685 H         1 <0>         0.0757
     19 H4          1.3595   -0.8714   -0.5054 H         1 <0>         0.4032
     20 H5         -0.8831   -3.4620   -0.2043 H         1 <0>         0.0855
     21 H6         -0.0893   -2.0526   -0.9471 H         1 <0>         0.0734
     22 H7          1.3215   -3.9801   -0.9640 H         1 <0>         0.4001
     23 H8         -2.8661   -0.5367    3.9793 H         1 <0>         0.4347
     24 H9          0.4290   -2.8807    3.7929 H         1 <0>         0.4431
     25 H10         3.8390    1.4616    1.0525 H         1 <0>         0.3950
@<TRIPOS>BOND
     1    1    2 1
     2    1   16 1
     3    1   17 1
     4    1   18 1
     5    2    3 am
     6    2   19 1
     7    3    4 2
     8    3    5 am
     9    5    6 1
    10    5    8 1
    11    6    7 1
    12    6   20 1
    13    6   21 1
    14    7   22 1
    15    8    9 1
    16    8   15 1
    17    8   10 1
    18   10   11 2
    19   10   12 am
    20   12   13 am
    21   12   23 1
    22   13   14 2
    23   13   15 am
    24   15   24 1
    25   16   25 1
@<TRIPOS>MOLECULE
ZINC38665056
   33    35     0     0     0
SMALL
USER_CHARGES

@<TRIPOS>ATOM
      1 C1         -0.0164    1.3605    0.0095 C.2       1 <0>         0.1921
      2 N1          1.2167    1.8032    0.0001 N.2       1 <0>        -0.4534
      3 C2          2.0518    0.7751   -0.0136 C.2       1 <0>        -0.0652
      4 C3          1.3106   -0.3812   -0.0124 C.2       1 <0>         0.2161
      5 N2          0.0021   -0.0041    0.0020 N.pl3     1 <0>        -0.4416
      6 C4         -1.1625   -0.8929    0.0087 C.3       1 <0>         0.3164
      7 H1         -0.9647   -1.7791   -0.5943 H         1 <0>         0.1231
      8 C5         -1.5206   -1.2992    1.4605 C.3       1 <0>         0.0804
      9 H2         -1.3700   -0.4681    2.1495 H         1 <0>         0.0937
     10 C6         -3.0294   -1.6345    1.3091 C.3       1 <0>         0.0449
     11 H3         -3.5590   -1.4720    2.2478 H         1 <0>         0.0947
     12 C7         -3.4848   -0.6195    0.2386 C.3       1 <0>         0.0543
     13 H4         -3.9512    0.2405    0.7191 H         1 <0>         0.1066
     14 O1         -2.3203   -0.2014   -0.4859 O.3       1 <0>        -0.3491
     15 C8         -4.4794   -1.2832   -0.7161 C.3       1 <0>         0.0654
     16 O2         -4.9839   -0.3086   -1.6313 O.3       1 <0>        -0.5626
     17 O3         -3.2088   -2.9766    0.8523 O.3       1 <0>        -0.5355
     18 O4         -0.7759   -2.4471    1.8726 O.3       1 <0>        -0.5178
     19 N3          1.8959   -1.6140   -0.0244 N.2       1 <0>        -0.5122
     20 C9          3.1749   -1.6952   -0.2837 C.2       1 <0>         0.3926
     21 N4          3.9278   -0.5901   -0.5807 N.pl3     1 <0>        -0.7613
     22 C10         3.5617    0.7280   -0.0287 C.3       1 <0>         0.4119
     23 H5          3.9547    1.5217   -0.6640 H         1 <0>         0.0997
     24 O5          4.0703    0.8632    1.2999 O.3       1 <0>        -0.5673
     25 H6         -0.9039    1.9758    0.0254 H         1 <0>         0.2151
     26 H7         -3.9773   -2.0763   -1.2701 H         1 <0>         0.0642
     27 H8         -5.3051   -1.7062   -0.1440 H         1 <0>         0.0601
     28 H9         -5.6216   -0.6597   -2.2678 H         1 <0>         0.3847
     29 H10        -4.1344   -3.2341    0.7419 H         1 <0>         0.3826
     30 H11        -0.9676   -2.7372    2.7749 H         1 <0>         0.3857
     31 H12         3.6525   -2.6636   -0.2628 H         1 <0>         0.1917
     32 H13         4.7044   -0.6746   -1.1558 H         1 <0>         0.4096
     33 H14         5.0355    0.8405    1.3557 H         1 <0>         0.3802
@<TRIPOS>BOND
     1    1    5 1
     2    1    2 2
     3    1   25 1
     4    2    3 1
     5    3   22 1
     6    3    4 2
     7    4    5 1
     8    4   19 1
     9    5    6 1
    10    6    7 1
    11    6   14 1
    12    6    8 1
    13    8    9 1
    14    8   10 1
    15    8   18 1
    16   10   11 1
    17   10   12 1
    18   10   17 1
    19   12   13 1
    20   12   14 1
    21   12   15 1
    22   15   16 1
    23   15   26 1
    24   15   27 1
    25   16   28 1
    26   17   29 1
    27   18   30 1
    28   19   20 2
    29   20   21 1
    30   20   31 1
    31   21   22 1
    32   21   32 1
    33   22   23 1
    34   22   24 1
    35   24   33 1
@<TRIPOS>MOLECULE
ZINC44785046
   42    42     0     0     0
SMALL
USER_CHARGES

@<TRIPOS>ATOM
      1 C1          1.7430   -3.6330    1.5654 C.3       1 <0>         0.0850
      2 N1          0.5337   -3.0299    0.9994 N.am      1 <0>        -0.6224
      3 C2         -0.1931   -2.0032    1.7503 C.3       1 <0>         0.0739
      4 C3          0.0899   -3.4197   -0.2120 C.2       1 <0>         0.4963
      5 O1          0.6917   -4.2697   -0.8336 O.2       1 <0>        -0.5249
      6 C4         -1.1540   -2.7994   -0.7942 C.3       1 <0>         0.0958
      7 N2         -1.4240   -3.3879   -2.1083 N.am      1 <0>        -0.5889
      8 C5         -2.2647   -4.5827   -2.2171 C.3       1 <0>         0.0520
      9 C6         -0.8990   -2.8302   -3.2172 C.2       1 <0>         0.5331
     10 O2         -0.1254   -1.9011   -3.1207 O.2       1 <0>        -0.5201
     11 C7         -1.2731   -3.3610   -4.5771 C.3       1 <0>        -0.0156
     12 C8         -0.6238   -2.4955   -5.6614 C.3       1 <0>        -0.1287
     13 C9         -1.1749   -1.0705   -5.5640 C.3       1 <0>         0.0537
     14 O3         -2.5974   -1.1012   -5.6972 O.3       1 <0>        -0.3777
     15 C10        -3.2622   -1.8569   -4.6828 C.3       1 <0>         0.0584
     16 C11        -2.7949   -3.3135   -4.7448 C.3       1 <0>        -0.1474
     17 C12        -0.7952   -4.7838   -4.7119 C.2       1 <0>         0.3861
     18 N3         -1.6262   -5.7156   -5.0439 N.2       1 <0>        -0.4191
     19 O4         -1.1771   -7.0525   -5.1705 O.3       1 <0>        -0.4215
     20 N4          0.5274   -5.0908   -4.4812 N.pl3     1 <0>        -0.8574
     21 H1          1.4713   -4.5119    2.1499 H         1 <0>         0.0555
     22 H2          2.4144   -3.9265    0.7585 H         1 <0>         0.0761
     23 H3          2.2430   -2.9091    2.2089 H         1 <0>         0.0715
     24 H4          0.1983   -1.0191    1.4923 H         1 <0>         0.0618
     25 H5         -1.2525   -2.0504    1.4982 H         1 <0>         0.0723
     26 H6         -0.0658   -2.1761    2.8189 H         1 <0>         0.0768
     27 H7         -1.9984   -2.9878   -0.1312 H         1 <0>         0.1116
     28 H8         -1.0083   -1.7244   -0.9005 H         1 <0>         0.1158
     29 H9         -3.3136   -4.2876   -2.2459 H         1 <0>         0.0667
     30 H10        -2.0137   -5.1217   -3.1306 H         1 <0>         0.1017
     31 H11        -2.0924   -5.2279   -1.3556 H         1 <0>         0.0702
     32 H12         0.4564   -2.4790   -5.5160 H         1 <0>         0.0865
     33 H13        -0.8538   -2.9086   -6.6435 H         1 <0>         0.0876
     34 H14        -0.9095   -0.6435   -4.5969 H         1 <0>         0.0741
     35 H15        -0.7483   -0.4606   -6.3603 H         1 <0>         0.1013
     36 H16        -3.0241   -1.4402   -3.7042 H         1 <0>         0.0475
     37 H17        -4.3393   -1.8135   -4.8443 H         1 <0>         0.1047
     38 H18        -3.0688   -3.7432   -5.7084 H         1 <0>         0.0999
     39 H19        -3.2675   -3.8821   -3.9439 H         1 <0>         0.0964
     40 H20        -1.8703   -7.6781   -5.4222 H         1 <0>         0.4010
     41 H21         1.1352   -4.4065   -4.1599 H         1 <0>         0.4000
     42 H22         0.8511   -5.9913   -4.6400 H         1 <0>         0.4105
@<TRIPOS>BOND
     1    1    2 1
     2    1   21 1
     3    1   22 1
     4    1   23 1
     5    2    3 1
     6    2    4 am
     7    3   24 1
     8    3   25 1
     9    3   26 1
    10    4    5 2
    11    4    6 1
    12    6    7 1
    13    6   27 1
    14    6   28 1
    15    7    8 1
    16    7    9 am
    17    8   29 1
    18    8   30 1
    19    8   31 1
    20    9   10 2
    21    9   11 1
    22   11   16 1
    23   11   12 1
    24   11   17 1
    25   12   13 1
    26   12   32 1
    27   12   33 1
    28   13   14 1
    29   13   34 1
    30   13   35 1
    31   14   15 1
    32   15   16 1
    33   15   36 1
    34   15   37 1
    35   16   38 1
    36   16   39 1
    37   17   18 2
    38   17   20 1
    39   18   19 1
    40   19   40 1
    41   20   41 1
    42   20   42 1
@<TRIPOS>MOLECULE
ZINC62810201
   38    39     0     0     0
SMALL
USER_CHARGES

@<TRIPOS>ATOM
      1 C1          0.0587    1.4013   -0.0959 C.3       1 <0>         0.0573
      2 C2          1.5274    1.8136   -0.2204 C.3       1 <0>         0.0499
      3 N1          2.2961    1.2165    0.8806 N.3       1 <0>        -0.5099
      4 C3          2.1975   -0.2495    0.8536 C.3       1 <0>         0.0355
      5 C4          0.7288   -0.6617    0.9781 C.3       1 <0>         0.0614
      6 N2         -0.0399   -0.0647   -0.1229 N.3       1 <0>        -0.5328
      7 C5         -1.4426   -0.4989   -0.0816 C.3       1 <0>         0.0537
      8 C6         -2.0842   -0.2820   -1.4536 C.3       1 <0>         0.0821
      9 O1         -1.4565   -1.1348   -2.4131 O.3       1 <0>        -0.5602
     10 C7          3.6988    1.6507    0.8394 C.3       1 <0>         0.0839
     11 H1          3.7230    2.7342    0.7230 H         1 <0>         0.1045
     12 C8          4.3781    1.0074   -0.3903 C.3       1 <0>        -0.6116
     13 S1          6.0672    0.6634    0.2701 S.o2      1 <0>         2.3686
     14 O2          6.8498    1.8474    0.2007 O.2       1 <0>        -0.9292
     15 O3          6.5592   -0.5416   -0.3002 O.2       1 <0>        -0.9333
     16 C9          5.5773    0.3564    2.0232 C.3       1 <0>        -0.5711
     17 C10         4.3579    1.2897    2.1621 C.3       1 <0>         0.0966
     18 H2          4.6806    2.2083    2.6521 H         1 <0>         0.0652
     19 N3          3.3614    0.6330    3.0186 N.3       1 <0>        -0.8227
     20 H3         -0.3456    1.7757    0.8446 H         1 <0>         0.0411
     21 H4         -0.5081    1.8193   -0.9278 H         1 <0>         0.0767
     22 H5          1.9241    1.4626   -1.1730 H         1 <0>         0.0485
     23 H6          1.6056    2.8997   -0.1714 H         1 <0>         0.0780
     24 H7          2.6018   -0.6238   -0.0869 H         1 <0>         0.0384
     25 H8          2.7643   -0.6675    1.6855 H         1 <0>         0.1295
     26 H9          0.6506   -1.7478    0.9291 H         1 <0>         0.0781
     27 H10         0.3321   -0.3108    1.9307 H         1 <0>         0.0415
     28 H11        -1.4881   -1.5566    0.1776 H         1 <0>         0.0813
     29 H12        -1.9809    0.0822    0.6671 H         1 <0>         0.0503
     30 H13        -3.1472   -0.5171   -1.3989 H         1 <0>         0.0469
     31 H14        -1.9572    0.7581   -1.7538 H         1 <0>         0.0432
     32 H15        -1.8139   -1.0503   -3.3077 H         1 <0>         0.3749
     33 H16         3.8745    0.0845   -0.6781 H         1 <0>         0.1498
     34 H17         4.4190    1.7063   -1.2258 H         1 <0>         0.1418
     35 H18         5.2913   -0.6847    2.1735 H         1 <0>         0.1489
     36 H19         6.3739    0.6450    2.7089 H         1 <0>         0.1403
     37 H20         3.7619    0.3772    3.9087 H         1 <0>         0.3410
     38 H21         2.5490    1.2185    3.1425 H         1 <0>         0.3618
@<TRIPOS>BOND
     1    1    6 1
     2    1    2 1
     3    1   20 1
     4    1   21 1
     5    2    3 1
     6    2   22 1
     7    2   23 1
     8    3    4 1
     9    3   10 1
    10    4    5 1
    11    4   24 1
    12    4   25 1
    13    5    6 1
    14    5   26 1
    15    5   27 1
    16    6    7 1
    17    7    8 1
    18    7   28 1
    19    7   29 1
    20    8    9 1
    21    8   30 1
    22    8   31 1
    23    9   32 1
    24   10   11 1
    25   10   17 1
    26   10   12 1
    27   12   13 1
    28   12   33 1
    29   12   34 1
    30   13   14 2
    31   13   15 2
    32   13   16 1
    33   16   17 1
    34   16   35 1
    35   16   36 1
    36   17   18 1
    37   17   19 1
    38   19   37 1
    39   19   38 1
@<TRIPOS>MOLECULE
ZINC40535422
   33    33     0     0     0
SMALL
USER_CHARGES

@<TRIPOS>ATOM
      1 C1         -0.0105    1.5296    0.0049 C.3       1 <0>        -0.1604
      2 C2          0.0021   -0.0004    0.0036 C.3       1 <0>         0.1653
      3 H1          0.5083   -0.3588   -0.8927 H         1 <0>         0.1017
      4 C3         -1.4360   -0.5223    0.0204 C.3       1 <0>         0.0511
      5 O1         -2.1341    0.0408    1.1329 O.3       1 <0>        -0.3875
      6 C4         -3.4941   -0.3844    1.2412 C.3       1 <0>         0.0311
      7 N1          0.7110   -0.4839    1.1911 N.am      1 <0>        -0.7377
      8 C5          2.0535   -0.6015    1.1732 C.2       1 <0>         0.7043
      9 O2          2.6763   -0.3063    0.1715 O.2       1 <0>        -0.5772
     10 N2          2.7056   -1.0463    2.2656 N.am      1 <0>        -0.6798
     11 C6          4.0892   -1.2607    2.2165 C.ar      1 <0>         0.1210
     12 C7          4.8954   -0.4212    1.4555 C.ar      1 <0>        -0.0936
     13 C8          6.2603   -0.6257    1.4023 C.ar      1 <0>        -0.1619
     14 C9          6.8358   -1.6681    2.1062 C.ar      1 <0>         0.1196
     15 C10         6.0326   -2.5183    2.8749 C.ar      1 <0>        -0.1554
     16 C11         4.6525   -2.3045    2.9301 C.ar      1 <0>        -0.0787
     17 C12         6.6399   -3.6307    3.6268 C.2       1 <0>         0.5218
     18 O3          5.9354   -4.3721    4.2977 O.co2     1 <0>        -0.6858
     19 O4          7.8486   -3.8127    3.5799 O.co2     1 <0>        -0.6715
     20 F1          8.1712   -1.8654    2.0515 F         1 <0>        -0.1223
     21 H2          1.0140    1.9014   -0.0070 H         1 <0>         0.0620
     22 H3         -0.5379    1.8893   -0.8785 H         1 <0>         0.0616
     23 H4         -0.5167    1.8880    0.9013 H         1 <0>         0.0650
     24 H5         -1.9368   -0.2373   -0.9048 H         1 <0>         0.0659
     25 H6         -1.4272   -1.6086    0.1091 H         1 <0>         0.0580
     26 H7         -4.0376   -0.0965    0.3413 H         1 <0>         0.0411
     27 H8         -3.5280   -1.4679    1.3552 H         1 <0>         0.0419
     28 H9         -3.9540    0.0869    2.1098 H         1 <0>         0.0863
     29 H10         0.2141   -0.7194    1.9902 H         1 <0>         0.4006
     30 H11         2.2170   -1.2179    3.0857 H         1 <0>         0.4053
     31 H12         4.4521    0.3942    0.9032 H         1 <0>         0.1412
     32 H13         6.8802    0.0301    0.8089 H         1 <0>         0.1301
     33 H14         4.0270   -2.9539    3.5248 H         1 <0>         0.1369
@<TRIPOS>BOND
     1    1    2 1
     2    1   21 1
     3    1   22 1
     4    1   23 1
     5    2    3 1
     6    2    4 1
     7    2    7 1
     8    4    5 1
     9    4   24 1
    10    4   25 1
    11    5    6 1
    12    6   26 1
    13    6   27 1
    14    6   28 1
    15    7    8 am
    16    7   29 1
    17    8    9 2
    18    8   10 am
    19   10   11 1
    20   10   30 1
    21   11   16 ar
    22   11   12 ar
    23   12   13 ar
    24   12   31 1
    25   13   14 ar
    26   13   32 1
    27   14   15 ar
    28   14   20 1
    29   15   16 ar
    30   15   17 1
    31   16   33 1
    32   17   18 2
    33   17   19 1
@<TRIPOS>MOLECULE
ZINC44217536
   42    43     0     0     0
SMALL
USER_CHARGES

@<TRIPOS>ATOM
      1 C1         -0.0184    1.5028    0.0103 C.3       1 <0>        -0.1154
      2 C2          0.0021   -0.0041    0.0020 C.ar      1 <0>        -0.0855
      3 C3          0.0057   -0.6888   -1.1991 C.ar      1 <0>        -0.1140
      4 C4          0.0245   -2.0707   -1.2067 C.ar      1 <0>        -0.1137
      5 C5          0.0400   -2.7685   -0.0132 C.ar      1 <0>        -0.1046
      6 C6          0.0373   -2.0840    1.1875 C.ar      1 <0>        -0.0678
      7 C7          0.0229   -0.7015    1.1951 C.ar      1 <0>        -0.0993
      8 C8          0.0538   -2.8445    2.4885 C.3       1 <0>        -0.0200
      9 H1          0.0490   -2.1447    3.3242 H         1 <0>         0.1111
     10 C9          1.3053   -3.7245    2.5576 C.3       1 <0>        -0.1573
     11 C10         1.3273   -4.5286    3.8186 C.2       1 <0>         0.3904
     12 O1          2.4148   -4.7404    4.3231 O.2       1 <0>        -0.4426
     13 C11         0.2318   -5.0471    4.4557 C.2       1 <0>        -0.1612
     14 C12        -1.0733   -4.8787    4.0380 C.2       1 <0>        -0.0814
     15 S1         -1.4051   -3.9285    2.5857 S.3       1 <0>        -0.0955
     16 S2         -2.3975   -5.6040    4.9463 S.3       1 <0>         0.0248
     17 C13        -3.8816   -5.1129    4.0261 C.3       1 <0>        -0.0321
     18 C14        -5.0749   -5.6626    4.6900 C.1       1 <0>        -0.1821
     19 C15        -6.0266   -6.1009    5.2195 C.1       1 <0>        -0.1625
     20 C16         0.4677   -5.8605    5.7022 C.3       1 <0>         0.1717
     21 H2         -0.4777   -6.2791    6.0473 H         1 <0>         0.0886
     22 C17         1.0565   -4.9634    6.7928 C.3       1 <0>        -0.2146
     23 C18         1.1780   -5.7454    8.0753 C.2       1 <0>         0.4940
     24 O2          0.8262   -6.9122    8.1135 O.co2     1 <0>        -0.6934
     25 O3          1.6281   -5.2114    9.0746 O.co2     1 <0>        -0.7019
     26 N1          1.4065   -6.9507    5.4052 N.3       1 <0>        -0.8409
     27 H3          1.0042    1.8801    0.0026 H         1 <0>         0.0714
     28 H4         -0.5455    1.8639   -0.8728 H         1 <0>         0.0666
     29 H5         -0.5286    1.8543    0.9071 H         1 <0>         0.0675
     30 H6         -0.0064   -0.1437   -2.1314 H         1 <0>         0.1227
     31 H7          0.0266   -2.6056   -2.1449 H         1 <0>         0.1256
     32 H8          0.0540   -3.8484   -0.0191 H         1 <0>         0.1288
     33 H9          0.0246   -0.1666    2.1333 H         1 <0>         0.1258
     34 H10         1.3154   -4.4001    1.7022 H         1 <0>         0.1110
     35 H11         2.1911   -3.0904    2.5221 H         1 <0>         0.1098
     36 H12        -3.9493   -4.0253    3.9994 H         1 <0>         0.1166
     37 H13        -3.8222   -5.4984    3.0082 H         1 <0>         0.1115
     38 H14        -6.8778   -6.4930    5.6930 H         1 <0>         0.2255
     39 H15         2.0425   -4.6159    6.4843 H         1 <0>         0.0716
     40 H16         0.4021   -4.1061    6.9506 H         1 <0>         0.0533
     41 H17         2.2913   -6.5882    5.0832 H         1 <0>         0.3348
     42 H18         1.5314   -7.5491    6.2080 H         1 <0>         0.3627
@<TRIPOS>BOND
     1    1    2 1
     2    1   27 1
     3    1   28 1
     4    1   29 1
     5    2    7 ar
     6    2    3 ar
     7    3    4 ar
     8    3   30 1
     9    4    5 ar
    10    4   31 1
    11    5    6 ar
    12    5   32 1
    13    6    7 ar
    14    6    8 1
    15    7   33 1
    16    8    9 1
    17    8   15 1
    18    8   10 1
    19   10   11 1
    20   10   34 1
    21   10   35 1
    22   11   12 2
    23   11   13 1
    24   13   14 2
    25   13   20 1
    26   14   15 1
    27   14   16 1
    28   16   17 1
    29   17   18 1
    30   17   36 1
    31   17   37 1
    32   18   19 3
    33   19   38 1
    34   20   21 1
    35   20   22 1
    36   20   26 1
    37   22   23 1
    38   22   39 1
    39   22   40 1
    40   23   24 2
    41   23   25 1
    42   26   41 1
    43   26   42 1
@<TRIPOS>MOLECULE
ZINC49561019
   44    44     0     0     0
SMALL
USER_CHARGES

@<TRIPOS>ATOM
      1 C1         -0.0187    1.5258    0.0104 C.3       1 <0>        -0.1525
      2 C2          0.0021   -0.0041    0.0020 C.3       1 <0>        -0.1038
      3 C3          0.7421   -0.5109    1.2415 C.3       1 <0>        -0.1448
      4 C4         -1.4333   -0.5336    0.0129 C.3       1 <0>         0.2548
      5 H1         -1.4190   -1.6203    0.0965 H         1 <0>         0.1080
      6 C5         -2.1755    0.0508    1.1870 C.2       1 <0>        -0.1297
      7 C6         -2.4416   -0.5084    2.3928 C.2       1 <0>        -0.1543
      8 C7         -3.1465    0.2231    3.3301 C.2       1 <0>        -0.1504
      9 C8         -3.5510    1.4781    3.0158 C.2       1 <0>        -0.1848
     10 S1         -2.9256    1.6622    1.3538 S.3       1 <0>         0.0401
     11 N1         -2.1054   -0.1483   -1.2305 N.am      1 <0>        -0.7475
     12 C9         -1.9698   -0.9103   -2.3339 C.2       1 <0>         0.7115
     13 O1         -1.2897   -1.9175   -2.2974 O.2       1 <0>        -0.5925
     14 N2         -2.5881   -0.5558   -3.4778 N.am      1 <0>        -0.7071
     15 C10        -2.4408   -1.3840   -4.6772 C.3       1 <0>         0.1030
     16 H2         -1.4362   -1.8061   -4.7061 H         1 <0>         0.0786
     17 C11        -3.4536   -2.4995   -4.6450 C.2       1 <0>         0.4951
     18 O2         -4.3416   -2.4926   -3.8095 O.co2     1 <0>        -0.6886
     19 O3         -3.3851   -3.4087   -5.4544 O.co2     1 <0>        -0.6951
     20 C12        -2.6686   -0.5241   -5.9220 C.3       1 <0>        -0.0614
     21 C13        -1.6403    0.6084   -5.9547 C.3       1 <0>        -0.1350
     22 C14        -2.5147   -1.3891   -7.1746 C.3       1 <0>        -0.1384
     23 C15        -4.0786    0.0684   -5.8814 C.3       1 <0>        -0.1348
     24 H3          1.0039    1.9031    0.0027 H         1 <0>         0.0543
     25 H4         -0.5459    1.8868   -0.8726 H         1 <0>         0.0547
     26 H5         -0.5289    1.8773    0.9072 H         1 <0>         0.0610
     27 H6          0.5123   -0.3556   -0.8948 H         1 <0>         0.0869
     28 H7          1.7647   -0.1336    1.2338 H         1 <0>         0.0559
     29 H8          0.2319   -0.1594    2.1383 H         1 <0>         0.0559
     30 H9          0.7568   -1.6008    1.2356 H         1 <0>         0.0576
     31 H10        -2.1081   -1.5107    2.6176 H         1 <0>         0.1347
     32 H11        -3.3721   -0.1991    4.2982 H         1 <0>         0.1321
     33 H12        -4.1043    2.1848    3.6164 H         1 <0>         0.1828
     34 H13        -2.6480    0.6552   -1.2597 H         1 <0>         0.3897
     35 H14        -3.1307    0.2477   -3.5070 H         1 <0>         0.3850
     36 H15        -0.6358    0.1862   -5.9836 H         1 <0>         0.0505
     37 H16        -1.8026    1.2210   -6.8415 H         1 <0>         0.0486
     38 H17        -1.7499    1.2246   -5.0623 H         1 <0>         0.0481
     39 H18        -3.2473   -2.1959   -7.1513 H         1 <0>         0.0884
     40 H19        -2.6770   -0.7764   -8.0614 H         1 <0>         0.0393
     41 H20        -1.5102   -1.8112   -7.2035 H         1 <0>         0.0478
     42 H21        -4.1883    0.6847   -4.9891 H         1 <0>         0.0447
     43 H22        -4.2409    0.6811   -6.7682 H         1 <0>         0.0468
     44 H23        -4.8112   -0.7384   -5.8581 H         1 <0>         0.0652
@<TRIPOS>BOND
     1    1    2 1
     2    1   24 1
     3    1   25 1
     4    1   26 1
     5    2    3 1
     6    2    4 1
     7    2   27 1
     8    3   28 1
     9    3   29 1
    10    3   30 1
    11    4    5 1
    12    4    6 1
    13    4   11 1
    14    6   10 1
    15    6    7 2
    16    7    8 1
    17    7   31 1
    18    8    9 2
    19    8   32 1
    20    9   10 1
    21    9   33 1
    22   11   12 am
    23   11   34 1
    24   12   13 2
    25   12   14 am
    26   14   15 1
    27   14   35 1
    28   15   16 1
    29   15   17 1
    30   15   20 1
    31   17   18 2
    32   17   19 1
    33   20   21 1
    34   20   22 1
    35   20   23 1
    36   21   36 1
    37   21   37 1
    38   21   38 1
    39   22   39 1
    40   22   40 1
    41   22   41 1
    42   23   42 1
    43   23   43 1
    44   23   44 1
@<TRIPOS>MOLECULE
ZINC61121472
   29    29     0     0     0
SMALL
USER_CHARGES

@<TRIPOS>ATOM
      1 C1          0.1539    1.3744    0.6021 C.ar      1 <0>        -0.1695
      2 C2          1.1769    2.0892   -0.0060 C.ar      1 <0>         0.2260
      3 C3          2.2179    1.4149   -0.6296 C.ar      1 <0>        -0.1412
      4 C4          2.2348    0.0317   -0.6445 C.ar      1 <0>         0.1221
      5 C5          1.2128   -0.6810   -0.0370 C.ar      1 <0>         0.0091
      6 C6          0.1729   -0.0088    0.5860 C.ar      1 <0>         0.1208
      7 F1         -0.8223   -0.7047    1.1781 F         1 <0>        -0.1172
      8 F2          1.2301   -2.0318   -0.0525 F         1 <0>        -0.1197
      9 F3          3.2475   -0.6248   -1.2517 F         1 <0>        -0.1153
     10 N1          1.1585    3.4895    0.0093 N.am      1 <0>        -0.6850
     11 C7          2.3135    4.1776    0.1037 C.2       1 <0>         0.7010
     12 O1          3.3761    3.5866    0.0909 O.2       1 <0>        -0.5712
     13 N2          2.2908    5.5208    0.2122 N.am      1 <0>        -0.7284
     14 C8          3.5462    6.2688    0.3148 C.3       1 <0>         0.1313
     15 C9          3.2414    7.7640    0.4263 C.3       1 <0>        -0.1044
     16 C10         4.5526    8.5451    0.5335 C.3       1 <0>        -0.1809
     17 C11         4.2524   10.0178    0.6433 C.2       1 <0>         0.4900
     18 O2          3.0969   10.4066    0.6365 O.co2     1 <0>        -0.6997
     19 O3          5.1651   10.8205    0.7390 O.co2     1 <0>        -0.7040
     20 H1         -0.6541    1.8979    1.0914 H         1 <0>         0.1574
     21 H2          3.0141    1.9700   -1.1034 H         1 <0>         0.1728
     22 H3          0.3145    3.9641   -0.0481 H         1 <0>         0.4151
     23 H4          1.4431    5.9923    0.2224 H         1 <0>         0.4013
     24 H5          4.0924    5.9423    1.1998 H         1 <0>         0.0667
     25 H6          4.1513    6.0866   -0.5733 H         1 <0>         0.0669
     26 H7          2.6953    8.0904   -0.4587 H         1 <0>         0.0675
     27 H8          2.6363    7.9462    1.3144 H         1 <0>         0.0674
     28 H9          5.0988    8.2186    1.4185 H         1 <0>         0.0606
     29 H10         5.1577    8.3629   -0.3546 H         1 <0>         0.0606
@<TRIPOS>BOND
     1    1    6 ar
     2    1    2 ar
     3    1   20 1
     4    2    3 ar
     5    2   10 1
     6    3    4 ar
     7    3   21 1
     8    4    5 ar
     9    4    9 1
    10    5    6 ar
    11    5    8 1
    12    6    7 1
    13   10   11 am
    14   10   22 1
    15   11   12 2
    16   11   13 am
    17   13   14 1
    18   13   23 1
    19   14   15 1
    20   14   24 1
    21   14   25 1
    22   15   16 1
    23   15   26 1
    24   15   27 1
    25   16   17 1
    26   16   28 1
    27   16   29 1
    28   17   18 2
    29   17   19 1
@<TRIPOS>MOLECULE
ZINC67147355
   36    37     0     0     0
SMALL
USER_CHARGES

@<TRIPOS>ATOM
      1 C1         -0.0167    1.3794    0.0096 C.ar      1 <0>        -0.2564
      2 C2          1.1780    2.0776    0.0020 C.ar      1 <0>        -0.0273
      3 C3          2.3733    1.3502   -0.0134 C.ar      1 <0>        -0.2297
      4 C4          2.3107   -0.0548   -0.0203 C.ar      1 <0>         0.3412
      5 S1          3.7985   -0.9985   -0.0390 S.3       1 <0>        -0.8005
      6 N1          1.1386   -0.6723   -0.0124 N.ar      1 <0>        -0.5110
      7 C5          0.0021   -0.0041    0.0020 C.ar      1 <0>         0.1366
      8 C6          3.6738    2.0436   -0.0225 C.2       1 <0>         0.5490
      9 O1          4.7058    1.4003   -0.0358 O.2       1 <0>        -0.4661
     10 N2          3.7194    3.3905   -0.0162 N.am      1 <0>        -0.7426
     11 C7          5.0121    4.0798   -0.0253 C.3       1 <0>         0.0996
     12 C8          4.7836    5.5926   -0.0154 C.3       1 <0>         0.1017
     13 H1          4.2300    5.8706    0.8814 H         1 <0>         0.1160
     14 C9          6.1337    6.3124   -0.0250 C.3       1 <0>         0.0277
     15 O2          5.9238    7.7202    0.1016 O.3       1 <0>        -0.2993
     16 C10         7.0297    8.5108    0.1103 C.ar      1 <0>         0.1244
     17 C11         8.2898    7.9429   -0.0063 C.ar      1 <0>        -0.1826
     18 C12         9.4129    8.7475    0.0027 C.ar      1 <0>        -0.1110
     19 C13         9.2810   10.1200    0.1287 C.ar      1 <0>         0.0550
     20 C14         8.0238   10.6880    0.2457 C.ar      1 <0>        -0.1130
     21 C15         6.8987    9.8864    0.2303 C.ar      1 <0>        -0.1238
     22 F1         10.3800   10.9056    0.1378 F         1 <0>        -0.1423
     23 O3          4.0350    5.9688   -1.1731 O.3       1 <0>        -0.5480
     24 H2         -0.9569    1.9105    0.0259 H         1 <0>         0.1196
     25 H3          1.1876    3.1575    0.0073 H         1 <0>         0.1178
     26 H4         -0.9317   -0.5467    0.0080 H         1 <0>         0.1397
     27 H5          2.8963    3.9036   -0.0056 H         1 <0>         0.3931
     28 H6          5.5831    3.7928    0.8577 H         1 <0>         0.0743
     29 H7          5.5658    3.8018   -0.9221 H         1 <0>         0.0680
     30 H8          6.7398    5.9589    0.8092 H         1 <0>         0.0785
     31 H9          6.6495    6.1048   -0.9625 H         1 <0>         0.0722
     32 H10         8.3930    6.8723   -0.1039 H         1 <0>         0.1394
     33 H11        10.3941    8.3056   -0.0881 H         1 <0>         0.1382
     34 H12         7.9223   11.7587    0.3442 H         1 <0>         0.1417
     35 H13         5.9179   10.3302    0.3167 H         1 <0>         0.1421
     36 H14         4.4685    5.7511   -2.0096 H         1 <0>         0.3777
@<TRIPOS>BOND
     1    1    7 ar
     2    1    2 ar
     3    1   24 1
     4    2    3 ar
     5    2   25 1
     6    3    4 ar
     7    3    8 1
     8    4    5 1
     9    4    6 ar
    10    6    7 ar
    11    7   26 1
    12    8    9 2
    13    8   10 am
    14   10   11 1
    15   10   27 1
    16   11   12 1
    17   11   28 1
    18   11   29 1
    19   12   13 1
    20   12   14 1
    21   12   23 1
    22   14   15 1
    23   14   30 1
    24   14   31 1
    25   15   16 1
    26   16   21 ar
    27   16   17 ar
    28   17   18 ar
    29   17   32 1
    30   18   19 ar
    31   18   33 1
    32   19   20 ar
    33   19   22 1
    34   20   21 ar
    35   20   34 1
    36   21   35 1
    37   23   36 1
@<TRIPOS>MOLECULE
ZINC36980464
   34    36     0     0     0
SMALL
USER_CHARGES

@<TRIPOS>ATOM
      1 C1         -0.0169    1.3986    0.0097 C.ar      1 <0>        -0.1292
      2 C2          1.1453    2.1058    0.0024 C.ar      1 <0>        -0.0497
      3 C3          2.3762    1.4336   -0.0129 C.ar      1 <0>        -0.1706
      4 C4          3.7218    1.8705   -0.0238 C.2       1 <0>         0.0705
      5 N1          4.5000    0.8269   -0.0371 N.2       1 <0>        -0.2538
      6 N2          3.7275   -0.3408   -0.0357 N.pl3     1 <0>        -0.5044
      7 H1          4.0677   -1.2491   -0.0440 H         1 <0>         0.4421
      8 C5          2.4043    0.0244   -0.0207 C.ar      1 <0>         0.1213
      9 C6          1.2127   -0.6887   -0.0127 C.ar      1 <0>        -0.0837
     10 C7          0.0021   -0.0041    0.0020 C.ar      1 <0>        -0.0603
     11 C8         -1.2686   -0.7569    0.0101 C.2       1 <0>         0.5570
     12 O1         -1.2550   -1.9726    0.0034 O.2       1 <0>        -0.5097
     13 N3         -2.4432   -0.0963    0.0248 N.am      1 <0>        -0.6929
     14 C9         -3.7036   -0.8430    0.0328 C.3       1 <0>         0.1028
     15 C10        -3.8726   -1.6354   -1.2873 C.3       1 <0>        -0.1112
     16 C11        -4.3924   -0.5563   -2.2694 C.3       1 <0>        -0.1223
     17 C12        -5.3426    0.3073   -1.4144 C.3       1 <0>        -0.1202
     18 C13        -4.9046    0.1250    0.0494 C.3       1 <0>        -0.1114
     19 C14        -3.7578   -1.7711    1.2189 C.2       1 <0>         0.5039
     20 O2         -2.8300   -1.8052    2.0092 O.co2     1 <0>        -0.6742
     21 O3         -4.7294   -2.4879    1.3881 O.co2     1 <0>        -0.6991
     22 H2         -0.9619    1.9213    0.0261 H         1 <0>         0.1295
     23 H3          1.1200    3.1855    0.0081 H         1 <0>         0.1317
     24 H4          4.0493    2.8997   -0.0215 H         1 <0>         0.1929
     25 H5          1.2260   -1.7686   -0.0188 H         1 <0>         0.1406
     26 H6         -2.4541    0.8737    0.0301 H         1 <0>         0.3841
     27 H7         -2.9157   -2.0348   -1.6234 H         1 <0>         0.0670
     28 H8         -4.6050   -2.4337   -1.1676 H         1 <0>         0.0787
     29 H9         -3.5659    0.0456   -2.6472 H         1 <0>         0.0567
     30 H10        -4.9355   -1.0199   -3.0930 H         1 <0>         0.0575
     31 H11        -5.2557    1.3550   -1.7024 H         1 <0>         0.0552
     32 H12        -6.3708   -0.0313   -1.5414 H         1 <0>         0.0609
     33 H13        -5.7204   -0.3020    0.6328 H         1 <0>         0.0832
     34 H14        -4.6052    1.0842    0.4718 H         1 <0>         0.0571
@<TRIPOS>BOND
     1    1   10 ar
     2    1    2 ar
     3    1   22 1
     4    2    3 ar
     5    2   23 1
     6    3    8 ar
     7    3    4 1
     8    4    5 2
     9    4   24 1
    10    5    6 1
    11    6    7 1
    12    6    8 1
    13    8    9 ar
    14    9   10 ar
    15    9   25 1
    16   10   11 1
    17   11   12 2
    18   11   13 am
    19   13   14 1
    20   13   26 1
    21   14   18 1
    22   14   15 1
    23   14   19 1
    24   15   16 1
    25   15   27 1
    26   15   28 1
    27   16   17 1
    28   16   29 1
    29   16   30 1
    30   17   18 1
    31   17   31 1
    32   17   32 1
    33   18   33 1
    34   18   34 1
    35   19   20 2
    36   19   21 1
@<TRIPOS>MOLECULE
ZINC41034600
   40    40     0     0     0
SMALL
USER_CHARGES

@<TRIPOS>ATOM
      1 C1         -0.0187    1.5258    0.0104 C.3       1 <0>        -0.1448
      2 C2          0.0021   -0.0041    0.0020 C.3       1 <0>        -0.0920
      3 H1          0.5123   -0.3556   -0.8948 H         1 <0>         0.0629
      4 C3         -1.4333   -0.5336    0.0129 C.3       1 <0>        -0.1096
      5 C4         -1.4126   -2.0635    0.0045 C.3       1 <0>        -0.1133
      6 C5         -0.6726   -2.5703    1.2440 C.3       1 <0>        -0.1129
      7 C6          0.7628   -2.0407    1.2331 C.3       1 <0>         0.1123
      8 C7          0.7421   -0.5109    1.2415 C.3       1 <0>        -0.0981
      9 C8          1.4917   -2.5400    2.4540 C.2       1 <0>         0.5006
     10 O1          2.4913   -3.2267    2.3289 O.co2     1 <0>        -0.6765
     11 O2          1.0818   -2.2571    3.5669 O.co2     1 <0>        -0.7009
     12 N1          1.4485   -2.5132    0.0278 N.am      1 <0>        -0.7024
     13 C9          1.5876   -3.8353   -0.1939 C.2       1 <0>         0.5214
     14 O3          1.1450   -4.6339    0.6044 O.2       1 <0>        -0.5166
     15 C10         2.2930   -4.3213   -1.4338 C.3       1 <0>        -0.1493
     16 C11         2.3137   -5.8511   -1.4422 C.3       1 <0>         0.1334
     17 N2          2.9994   -6.3236   -2.6475 N.am      1 <0>        -0.7315
     18 C12         3.1385   -7.6457   -2.8693 C.2       1 <0>         0.5048
     19 O4          2.6959   -8.4443   -2.0709 O.2       1 <0>        -0.5444
     20 C13         3.8438   -8.1317   -4.1091 C.3       1 <0>        -0.1707
     21 H2          1.0039    1.9031    0.0027 H         1 <0>         0.0518
     22 H3         -0.5459    1.8868   -0.8726 H         1 <0>         0.0487
     23 H4         -0.5289    1.8773    0.9072 H         1 <0>         0.0539
     24 H5         -1.9435   -0.1821    0.9097 H         1 <0>         0.0603
     25 H6         -1.9605   -0.1726   -0.8702 H         1 <0>         0.0522
     26 H7         -2.4352   -2.4408    0.0122 H         1 <0>         0.0520
     27 H8         -0.9024   -2.4150   -0.8923 H         1 <0>         0.0540
     28 H9         -1.1828   -2.2188    2.1408 H         1 <0>         0.0673
     29 H10        -0.6578   -3.6602    1.2380 H         1 <0>         0.0759
     30 H11         1.7647   -0.1336    1.2338 H         1 <0>         0.0573
     31 H12         0.2319   -0.1594    2.1383 H         1 <0>         0.0791
     32 H13         1.8025   -1.8745   -0.6107 H         1 <0>         0.3824
     33 H14         1.7658   -3.9602   -2.3169 H         1 <0>         0.0874
     34 H15         3.3156   -3.9440   -1.4415 H         1 <0>         0.0925
     35 H16         2.8409   -6.2122   -0.5591 H         1 <0>         0.0799
     36 H17         1.2911   -6.2284   -1.4345 H         1 <0>         0.0749
     37 H18         3.3534   -5.6849   -3.2860 H         1 <0>         0.3977
     38 H19         4.9087   -8.2395   -3.9027 H         1 <0>         0.0918
     39 H20         3.4320   -9.0959   -4.4071 H         1 <0>         0.0908
     40 H21         3.7010   -7.4112   -4.9144 H         1 <0>         0.0776
@<TRIPOS>BOND
     1    1    2 1
     2    1   21 1
     3    1   22 1
     4    1   23 1
     5    2    3 1
     6    2    8 1
     7    2    4 1
     8    4    5 1
     9    4   24 1
    10    4   25 1
    11    5    6 1
    12    5   26 1
    13    5   27 1
    14    6    7 1
    15    6   28 1
    16    6   29 1
    17    7    8 1
    18    7    9 1
    19    7   12 1
    20    8   30 1
    21    8   31 1
    22    9   10 2
    23    9   11 1
    24   12   13 am
    25   12   32 1
    26   13   14 2
    27   13   15 1
    28   15   16 1
    29   15   33 1
    30   15   34 1
    31   16   17 1
    32   16   35 1
    33   16   36 1
    34   17   18 am
    35   17   37 1
    36   18   19 2
    37   18   20 1
    38   20   38 1
    39   20   39 1
    40   20   40 1
@<TRIPOS>MOLECULE
ZINC49238708
   38    40     0     0     0
SMALL
USER_CHARGES

@<TRIPOS>ATOM
      1 C1         -2.4196    0.3667    0.0669 C.3       1 <0>        -0.1764
      2 C2         -2.7057    0.4513    1.5676 C.3       1 <0>        -0.1659
      3 C3         -1.2636    0.5062    1.0593 C.3       1 <0>        -0.1593
      4 C4         -0.3838   -0.7229    1.2963 C.3       1 <0>         0.2270
      5 C5          0.3365   -1.0925   -0.0019 C.3       1 <0>        -0.1598
      6 C6         -0.0754   -2.3942   -0.6925 C.3       1 <0>        -0.1699
      7 C7          1.2709   -2.3036    0.0287 C.3       1 <0>        -0.1739
      8 N1          0.6049   -0.4229    2.3350 N.am      1 <0>        -0.7435
      9 C8          0.2901   -0.5935    3.6343 C.2       1 <0>         0.7319
     10 O1         -0.8143   -0.9964    3.9445 O.2       1 <0>        -0.5716
     11 N2          1.1997   -0.3175    4.5898 N.am      1 <0>        -0.6016
     12 C9          2.5671    0.1813    4.3560 C.3       1 <0>         0.0746
     13 C10         2.9552    0.9051    5.6695 C.3       1 <0>         0.0876
     14 H1          4.0375    0.9300    5.7967 H         1 <0>         0.0744
     15 C11         2.2908   -0.0059    6.7353 C.3       1 <0>        -0.0985
     16 C12         0.9903   -0.4578    6.0383 C.3       1 <0>         0.0896
     17 H2          0.1593    0.1722    6.3555 H         1 <0>         0.0667
     18 C13         0.7039   -1.8980    6.3776 C.2       1 <0>         0.4949
     19 O2          0.8280   -2.7613    5.5256 O.co2     1 <0>        -0.6779
     20 O3          0.3482   -2.1998    7.5040 O.co2     1 <0>        -0.7032
     21 O4          2.4071    2.2242    5.7086 O.3       1 <0>        -0.5531
     22 H3         -2.5534   -0.6007   -0.4172 H         1 <0>         0.0934
     23 H4         -2.6674    1.2358   -0.5425 H         1 <0>         0.0888
     24 H5         -3.1416    1.3761    1.9454 H         1 <0>         0.0880
     25 H6         -3.0276   -0.4604    2.0707 H         1 <0>         0.0996
     26 H7         -0.7508    1.4670    1.1029 H         1 <0>         0.0991
     27 H8         -1.0058   -1.5585    1.6173 H         1 <0>         0.0880
     28 H9          0.6207   -0.2535   -0.6371 H         1 <0>         0.1066
     29 H10        -0.8595   -2.9873   -0.2219 H         1 <0>         0.0955
     30 H11        -0.0623   -2.4117   -1.7823 H         1 <0>         0.0941
     31 H12         2.1697   -2.2616   -0.5866 H         1 <0>         0.0927
     32 H13         1.3725   -2.8371    0.9738 H         1 <0>         0.1002
     33 H14         1.4860   -0.1015    2.0875 H         1 <0>         0.3868
     34 H15         3.2466   -0.6495    4.1657 H         1 <0>         0.0693
     35 H16         2.5781    0.8806    3.5200 H         1 <0>         0.0639
     36 H17         2.9276   -0.8607    6.9631 H         1 <0>         0.0861
     37 H18         2.0647    0.5597    7.6392 H         1 <0>         0.0849
     38 H19         2.7208    2.8017    4.9991 H         1 <0>         0.3709
@<TRIPOS>BOND
     1    1    3 1
     2    1    2 1
     3    1   22 1
     4    1   23 1
     5    2    3 1
     6    2   24 1
     7    2   25 1
     8    3    4 1
     9    3   26 1
    10    4    5 1
    11    4    8 1
    12    4   27 1
    13    5    7 1
    14    5    6 1
    15    5   28 1
    16    6    7 1
    17    6   29 1
    18    6   30 1
    19    7   31 1
    20    7   32 1
    21    8    9 am
    22    8   33 1
    23    9   10 2
    24    9   11 am
    25   11   16 1
    26   11   12 1
    27   12   13 1
    28   12   34 1
    29   12   35 1
    30   13   14 1
    31   13   15 1
    32   13   21 1
    33   15   16 1
    34   15   36 1
    35   15   37 1
    36   16   17 1
    37   16   18 1
    38   18   19 2
    39   18   20 1
    40   21   38 1
@<TRIPOS>MOLECULE
ZINC04167170
   34    35     0     0     0
SMALL
USER_CHARGES

@<TRIPOS>ATOM
      1 C1          0.7698    1.8296    0.3603 C.3       1 <0>        -0.0988
      2 C2          1.6474    0.6303    0.7290 C.3       1 <0>        -0.1575
      3 C3          2.3568    0.1335   -0.5035 C.2       1 <0>         0.3966
      4 O1          3.4486   -0.4031   -0.3979 O.3       1 <0>        -0.5864
      5 C4          1.7784    0.2802   -1.7638 C.2       1 <0>        -0.5918
      6 C5          2.4939   -0.2169   -2.9495 C.2       1 <0>         0.3423
      7 C6          3.5246    0.6497   -3.6259 C.3       1 <0>        -0.0660
      8 C7          4.1138   -0.0988   -4.8232 C.3       1 <0>        -0.0734
      9 C8          4.9009   -1.3181   -4.3313 C.3       1 <0>        -0.1381
     10 C9          5.5704   -1.9811   -5.5059 C.2       1 <0>         0.5288
     11 O2          5.7793   -3.1748   -5.4752 O.2       1 <0>        -0.5112
     12 N1          5.9399   -1.2764   -6.5859 N.am      1 <0>        -0.6783
     13 C10         5.7304    0.0442   -6.6933 C.2       1 <0>         0.5314
     14 O3          6.0791    0.6213   -7.7007 O.2       1 <0>        -0.5177
     15 C11         5.0700    0.8236   -5.5869 C.3       1 <0>        -0.1440
     16 N2          2.2377   -1.3999   -3.4120 N.2       1 <0>        -0.7316
     17 C12         0.5338    0.8893   -1.9205 C.2       1 <0>         0.3947
     18 O4          0.0530    1.0042   -3.0370 O.2       1 <0>        -0.5868
     19 C13        -0.2235    1.4064   -0.7254 C.3       1 <0>        -0.1576
     20 H1          0.2247    2.1672    1.2417 H         1 <0>         0.0537
     21 H2          1.3968    2.6386   -0.0145 H         1 <0>         0.0617
     22 H3          2.3825    0.9331    1.4747 H         1 <0>         0.0679
     23 H4          1.0234   -0.1658    1.1352 H         1 <0>         0.0715
     24 H5          3.0554    1.5718   -3.9689 H         1 <0>         0.0841
     25 H6          3.3099   -0.4213   -5.4849 H         1 <0>         0.0905
     26 H7          5.6567   -0.9986   -3.6138 H         1 <0>         0.1025
     27 H8          4.2199   -2.0232   -3.8546 H         1 <0>         0.1414
     28 H9          6.3760   -1.7400   -7.3179 H         1 <0>         0.4049
     29 H10         4.5105    1.6568   -6.0120 H         1 <0>         0.1126
     30 H11         5.8307    1.2044   -4.9054 H         1 <0>         0.1106
     31 H12         1.5237   -1.9287   -3.0228 H         1 <0>         0.3229
     32 H13         4.3196    0.8876   -2.9192 H         1 <0>         0.0819
     33 H14        -0.8723    0.6206   -0.3384 H         1 <0>         0.0716
     34 H15        -0.8272    2.2646   -1.0205 H         1 <0>         0.0675
@<TRIPOS>BOND
     1    1   19 1
     2    1    2 1
     3    1   20 1
     4    1   21 1
     5    2    3 1
     6    2   22 1
     7    2   23 1
     8    3    4 1
     9    3    5 2
    10    5   17 1
    11    5    6 1
    12    6    7 1
    13    6   16 2
    14    7    8 1
    15    7   24 1
    16    7   32 1
    17    8   15 1
    18    8    9 1
    19    8   25 1
    20    9   10 1
    21    9   26 1
    22    9   27 1
    23   10   11 2
    24   10   12 am
    25   12   13 am
    26   12   28 1
    27   13   14 2
    28   13   15 1
    29   15   29 1
    30   15   30 1
    31   16   31 1
    32   17   18 2
    33   17   19 1
    34   19   33 1
    35   19   34 1
@<TRIPOS>MOLECULE
ZINC63004387
   28    28     0     0     0
SMALL
USER_CHARGES

@<TRIPOS>ATOM
      1 C1         -0.0166    1.3765    0.0096 C.ar      1 <0>        -0.0798
      2 C2          1.1842    2.0889    0.0020 C.ar      1 <0>        -0.0645
      3 C3          2.3992    1.4009   -0.0133 C.ar      1 <0>        -0.1050
      4 C4          2.4081    0.0202   -0.0208 C.ar      1 <0>         0.0949
      5 C5          1.2120   -0.6837   -0.0132 C.ar      1 <0>         0.0463
      6 C6          0.0021   -0.0041    0.0020 C.ar      1 <0>         0.0940
      7 F1         -1.1592   -0.6944    0.0098 F         1 <0>        -0.1165
      8 F2          1.2256   -2.0346   -0.0210 F         1 <0>        -0.1160
      9 F3          3.5830   -0.6466   -0.0361 F         1 <0>        -0.1170
     10 C7          1.1694    3.5661    0.0096 C.2       1 <0>         0.5587
     11 O1          0.1106    4.1633    0.0225 O.2       1 <0>        -0.5278
     12 N1          2.3298    4.2517    0.0022 N.am      1 <0>        -0.6846
     13 C8          2.3151    5.7166    0.0097 C.3       1 <0>         0.0765
     14 H1          1.4752    6.0685    0.6088 H         1 <0>         0.0897
     15 C9          3.6229    6.2367    0.6097 C.3       1 <0>        -0.1096
     16 C10         3.7082    5.8252    2.0809 C.3       1 <0>         0.0762
     17 O2          4.9296    6.3109    2.6413 O.3       1 <0>        -0.5746
     18 C11         2.1730    6.2248   -1.4019 C.2       1 <0>         0.4923
     19 O3          2.0915    5.4364   -2.3284 O.co2     1 <0>        -0.6816
     20 O4          2.1395    7.4244   -1.6175 O.co2     1 <0>        -0.6911
     21 H2         -0.9586    1.9045    0.0259 H         1 <0>         0.1684
     22 H3          3.3304    1.9478   -0.0196 H         1 <0>         0.1581
     23 H4          3.1746    3.7752   -0.0081 H         1 <0>         0.3914
     24 H5          4.4665    5.8133    0.0645 H         1 <0>         0.0690
     25 H6          3.6503    7.3237    0.5343 H         1 <0>         0.0931
     26 H7          2.8646    6.2486    2.6261 H         1 <0>         0.0452
     27 H8          3.6808    4.7382    2.1563 H         1 <0>         0.0412
     28 H9          5.0511    6.0865    3.5740 H         1 <0>         0.3729
@<TRIPOS>BOND
     1    1    6 ar
     2    1    2 ar
     3    1   21 1
     4    2    3 ar
     5    2   10 1
     6    3    4 ar
     7    3   22 1
     8    4    5 ar
     9    4    9 1
    10    5    6 ar
    11    5    8 1
    12    6    7 1
    13   10   11 2
    14   10   12 am
    15   12   13 1
    16   12   23 1
    17   13   14 1
    18   13   15 1
    19   13   18 1
    20   15   16 1
    21   15   24 1
    22   15   25 1
    23   16   17 1
    24   16   26 1
    25   16   27 1
    26   17   28 1
    27   18   19 2
    28   18   20 1
@<TRIPOS>MOLECULE
ZINC36329300
   34    35     0     0     0
SMALL
USER_CHARGES

@<TRIPOS>ATOM
      1 C1         -0.0187    1.5258    0.0104 C.3       1 <0>        -0.1822
      2 C2          0.0021   -0.0041    0.0020 C.3       1 <0>         0.1122
      3 H1          0.5123   -0.3556   -0.8948 H         1 <0>         0.0501
      4 C3          0.7421   -0.5109    1.2415 C.3       1 <0>         0.0803
      5 H2          0.2319   -0.1594    2.1383 H         1 <0>         0.0885
      6 C4          0.7625   -2.0177    1.2333 C.2       1 <0>         0.4941
      7 O1          1.8087   -2.6121    1.0367 O.co2     1 <0>        -0.6941
      8 O2         -0.2672   -2.6424    1.4231 O.co2     1 <0>        -0.6785
      9 N1          2.1165   -0.0038    1.2311 N.am      1 <0>        -0.6878
     10 C5          2.7950    0.1277    2.3882 C.2       1 <0>         0.5587
     11 O3          2.2664   -0.1744    3.4407 O.2       1 <0>        -0.5204
     12 C6          4.1792    0.6385    2.3777 C.ar      1 <0>        -0.1164
     13 C7          4.7877    0.9921    1.1702 C.ar      1 <0>        -0.0820
     14 C8          6.0803    1.4681    1.1648 C.ar      1 <0>        -0.1267
     15 C9          6.7827    1.5975    2.3513 C.ar      1 <0>        -0.0963
     16 C10         6.1937    1.2501    3.5568 C.ar      1 <0>         0.0340
     17 C11         4.8872    0.7764    3.5786 C.ar      1 <0>         0.1068
     18 O4          4.2863    0.4429    4.7501 O.3       1 <0>        -0.2663
     19 C12         5.1436    0.2404    5.8788 C.3       1 <0>         0.0135
     20 C13         6.1508    1.3971    5.9308 C.3       1 <0>         0.0199
     21 O5          6.9052    1.3818    4.7100 O.3       1 <0>        -0.3081
     22 O6         -1.3386   -0.4987    0.0122 O.3       1 <0>        -0.5331
     23 H3          1.0039    1.9031    0.0027 H         1 <0>         0.0617
     24 H4         -0.5459    1.8868   -0.8726 H         1 <0>         0.0532
     25 H5         -0.5289    1.8773    0.9072 H         1 <0>         0.0618
     26 H6          2.5382    0.2372    0.3915 H         1 <0>         0.3877
     27 H7          4.2449    0.8918    0.2419 H         1 <0>         0.1353
     28 H8          6.5484    1.7414    0.2307 H         1 <0>         0.1363
     29 H9          7.7959    1.9711    2.3371 H         1 <0>         0.1353
     30 H10         4.5505    0.2280    6.7933 H         1 <0>         0.1227
     31 H11         5.6750   -0.7053    5.7718 H         1 <0>         0.0782
     32 H12         5.6192    2.3432    6.0323 H         1 <0>         0.0779
     33 H13         6.8242    1.2605    6.7770 H         1 <0>         0.1206
     34 H14        -1.8677   -0.2163   -0.7464 H         1 <0>         0.3629
@<TRIPOS>BOND
     1    1    2 1
     2    1   23 1
     3    1   24 1
     4    1   25 1
     5    2    3 1
     6    2    4 1
     7    2   22 1
     8    4    5 1
     9    4    6 1
    10    4    9 1
    11    6    7 2
    12    6    8 1
    13    9   10 am
    14    9   26 1
    15   10   11 2
    16   10   12 1
    17   12   17 ar
    18   12   13 ar
    19   13   14 ar
    20   13   27 1
    21   14   15 ar
    22   14   28 1
    23   15   16 ar
    24   15   29 1
    25   16   21 1
    26   16   17 ar
    27   17   18 1
    28   18   19 1
    29   19   20 1
    30   19   30 1
    31   19   31 1
    32   20   21 1
    33   20   32 1
    34   20   33 1
    35   22   34 1
@<TRIPOS>MOLECULE
ZINC40547657
   39    39     0     0     0
SMALL
USER_CHARGES

@<TRIPOS>ATOM
      1 C1          0.1174    0.3479   -0.9943 C.3       1 <0>        -0.1832
      2 C2         -0.3788   -0.2999    0.3000 C.3       1 <0>         0.1422
      3 C3          0.8162   -0.6247    1.1985 C.3       1 <0>        -0.1979
      4 N1         -1.2761    0.6254    0.9964 N.am      1 <0>        -0.6206
      5 C4         -2.4940    0.1223    1.6366 C.3       1 <0>         0.0666
      6 C5         -2.1910   -0.2594    3.0626 C.2       1 <0>         0.4764
      7 O1         -1.0623   -0.1238    3.5033 O.co2     1 <0>        -0.6786
      8 O2         -3.0745   -0.7039    3.7756 O.co2     1 <0>        -0.7038
      9 C6         -0.9812    1.9395    1.0480 C.2       1 <0>         0.7441
     10 O3         -1.8559    2.7661    0.8749 O.2       1 <0>        -0.5812
     11 N2          0.2833    2.3373    1.2915 N.am      1 <0>        -0.6315
     12 C7          1.4230    1.5628    0.7816 C.3       1 <0>         0.0303
     13 C8          2.3387    2.4987   -0.0136 C.3       1 <0>        -0.1406
     14 C9          2.7304    3.6897    0.8640 C.3       1 <0>        -0.0955
     15 C10         1.4738    4.4671    1.2623 C.3       1 <0>        -0.1251
     16 H1          0.9562    4.8063    0.3650 H         1 <0>         0.1009
     17 C11         0.5482    3.5569    2.0668 C.3       1 <0>         0.1489
     18 C12         1.8634    5.6584    2.0989 C.2       1 <0>         0.5278
     19 O4          3.0313    5.8658    2.3521 O.2       1 <0>        -0.5457
     20 N3          0.9141    6.4934    2.5659 N.am      1 <0>        -0.8551
     21 H2          1.0989   -0.0526   -1.2479 H         1 <0>         0.0764
     22 H3         -0.5830    0.1311   -1.8008 H         1 <0>         0.0604
     23 H4          0.1898    1.4266   -0.8561 H         1 <0>         0.0742
     24 H5         -0.9161   -1.2184    0.0638 H         1 <0>         0.0842
     25 H6          0.6954   -0.1237    2.1590 H         1 <0>         0.1088
     26 H7          0.8709   -1.7020    1.3550 H         1 <0>         0.0442
     27 H8          1.7337   -0.2798    0.7216 H         1 <0>         0.0652
     28 H9         -3.2590    0.8986    1.6229 H         1 <0>         0.0759
     29 H10        -2.8544   -0.7524    1.0951 H         1 <0>         0.0686
     30 H11         1.9760    1.1334    1.6170 H         1 <0>         0.0680
     31 H12         1.0617    0.7659    0.1316 H         1 <0>         0.1639
     32 H13         3.2361    1.9590   -0.3162 H         1 <0>         0.0744
     33 H14         1.8130    2.8564   -0.8989 H         1 <0>         0.0623
     34 H15         3.2342    3.3296    1.7610 H         1 <0>         0.0710
     35 H16         3.4019    4.3446    0.3088 H         1 <0>         0.0672
     36 H17        -0.3901    4.0752    2.2645 H         1 <0>         0.0853
     37 H18         1.0283    3.2937    3.0093 H         1 <0>         0.0674
     38 H19        -0.0199    6.3276    2.3634 H         1 <0>         0.4046
     39 H20         1.1649    7.2602    3.1044 H         1 <0>         0.3994
@<TRIPOS>BOND
     1    1    2 1
     2    1   21 1
     3    1   22 1
     4    1   23 1
     5    2    3 1
     6    2    4 1
     7    2   24 1
     8    3   25 1
     9    3   26 1
    10    3   27 1
    11    4    5 1
    12    4    9 am
    13    5    6 1
    14    5   28 1
    15    5   29 1
    16    6    7 2
    17    6    8 1
    18    9   10 2
    19    9   11 am
    20   11   17 1
    21   11   12 1
    22   12   13 1
    23   12   30 1
    24   12   31 1
    25   13   14 1
    26   13   32 1
    27   13   33 1
    28   14   15 1
    29   14   34 1
    30   14   35 1
    31   15   16 1
    32   15   17 1
    33   15   18 1
    34   17   36 1
    35   17   37 1
    36   18   19 2
    37   18   20 am
    38   20   38 1
    39   20   39 1
@<TRIPOS>MOLECULE
ZINC42397521
   42    42     0     0     0
SMALL
USER_CHARGES

@<TRIPOS>ATOM
      1 C1         -0.0187    1.5258    0.0104 C.3       1 <0>        -0.1462
      2 C2          0.0021   -0.0041    0.0020 C.3       1 <0>        -0.1338
      3 C3          0.7182   -0.4975   -1.2568 C.3       1 <0>        -0.0947
      4 C4          0.7390   -2.0273   -1.2652 C.3       1 <0>         0.1153
      5 C5          1.4790   -2.5342   -0.0257 C.3       1 <0>        -0.1391
      6 C6         -0.6748   -2.5489   -1.2545 C.2       1 <0>         0.4987
      7 O1         -1.0728   -3.2503   -2.1689 O.co2     1 <0>        -0.6588
      8 O2         -1.4207   -2.2696   -0.3314 O.co2     1 <0>        -0.7011
      9 N1          1.4247   -2.4998   -2.4705 N.am      1 <0>        -0.7179
     10 C7          1.5637   -3.8219   -2.6922 C.2       1 <0>         0.7411
     11 O3          1.1201   -4.6225   -1.8919 O.2       1 <0>        -0.5529
     12 N2          2.1946   -4.2565   -3.8011 N.am      1 <0>        -0.6280
     13 C8          2.7834   -3.3997   -4.8463 C.3       1 <0>         0.1013
     14 C9          3.8706   -4.2785   -5.5137 C.3       1 <0>        -0.1281
     15 C10         3.1957   -5.6754   -5.4967 C.3       1 <0>        -0.1218
     16 C11         2.4151   -5.6637   -4.1655 C.3       1 <0>         0.1452
     17 H1          2.9958   -6.1612   -3.3887 H         1 <0>         0.0921
     18 C12         1.0909   -6.3603   -4.3449 C.2       1 <0>         0.4861
     19 O4          0.0567   -5.7472   -4.1854 O.2       1 <0>        -0.4738
     20 N3          1.0558   -7.6646   -4.6825 N.am      1 <0>        -0.7465
     21 C13        -0.2315   -8.3418   -4.8568 C.3       1 <0>         0.0925
     22 H2          1.0039    1.9031    0.0027 H         1 <0>         0.0402
     23 H3         -0.5459    1.8868   -0.8726 H         1 <0>         0.0462
     24 H4         -0.5289    1.8773    0.9072 H         1 <0>         0.0474
     25 H5          0.5293   -0.3651    0.8851 H         1 <0>         0.0561
     26 H6         -1.0205   -0.3814    0.0098 H         1 <0>         0.1097
     27 H7          0.1910   -0.1364   -2.1398 H         1 <0>         0.0530
     28 H8          1.7408   -0.1202   -1.2645 H         1 <0>         0.0446
     29 H9          0.9688   -2.1826    0.8711 H         1 <0>         0.0640
     30 H10         1.4937   -3.6240   -0.0317 H         1 <0>         0.0668
     31 H11         2.5015   -2.1569   -0.0334 H         1 <0>         0.0308
     32 H12         1.7786   -1.8611   -3.1090 H         1 <0>         0.3764
     33 H13         2.0248   -3.1155   -5.5757 H         1 <0>         0.0624
     34 H14         3.2334   -2.5126   -4.4006 H         1 <0>         0.0716
     35 H15         4.0651   -3.9509   -6.5349 H         1 <0>         0.0831
     36 H16         4.7875   -4.2803   -4.9243 H         1 <0>         0.0778
     37 H17         2.5189   -5.7871   -6.3438 H         1 <0>         0.0791
     38 H18         3.9459   -6.4662   -5.4942 H         1 <0>         0.0871
     39 H19         1.8829   -8.1550   -4.8100 H         1 <0>         0.3937
     40 H20        -0.7954   -8.2957   -3.9252 H         1 <0>         0.0578
     41 H21        -0.7967   -7.8496   -5.6483 H         1 <0>         0.0543
     42 H22        -0.0603   -9.3839   -5.1267 H         1 <0>         0.0682
@<TRIPOS>BOND
     1    1    2 1
     2    1   22 1
     3    1   23 1
     4    1   24 1
     5    2    3 1
     6    2   25 1
     7    2   26 1
     8    3    4 1
     9    3   27 1
    10    3   28 1
    11    4    5 1
    12    4    6 1
    13    4    9 1
    14    5   29 1
    15    5   30 1
    16    5   31 1
    17    6    7 2
    18    6    8 1
    19    9   10 am
    20    9   32 1
    21   10   11 2
    22   10   12 am
    23   12   16 1
    24   12   13 1
    25   13   14 1
    26   13   33 1
    27   13   34 1
    28   14   15 1
    29   14   35 1
    30   14   36 1
    31   15   16 1
    32   15   37 1
    33   15   38 1
    34   16   17 1
    35   16   18 1
    36   18   19 2
    37   18   20 am
    38   20   21 1
    39   20   39 1
    40   21   40 1
    41   21   41 1
    42   21   42 1
@<TRIPOS>MOLECULE
ZINC49540146
   35    36     0     0     0
SMALL
USER_CHARGES

@<TRIPOS>ATOM
      1 C1         -0.0184    1.5028    0.0103 C.3       1 <0>        -0.0802
      2 C2          0.0021   -0.0041    0.0020 C.2       1 <0>         0.0623
      3 C3          0.0059   -0.7076   -1.1591 C.2       1 <0>        -0.2389
      4 S1          0.0324   -2.3789   -0.5312 S.3       1 <0>         0.1142
      5 C4          0.0357   -2.0088    1.1107 C.2       1 <0>         0.0503
      6 N1          0.0226   -0.6992    1.1217 N.2       1 <0>        -0.5002
      7 C5          0.0549   -2.9548    2.2837 C.3       1 <0>         0.2343
      8 N2         -1.3200   -3.2810    2.6705 N.am      1 <0>        -0.7532
      9 C6         -1.5493   -4.1163    3.7030 C.2       1 <0>         0.7161
     10 O1         -0.6152   -4.5991    4.3135 O.2       1 <0>        -0.5610
     11 N3         -2.8142   -4.4164    4.0589 N.am      1 <0>        -0.7132
     12 C7         -3.0635   -5.3243    5.1813 C.3       1 <0>         0.1204
     13 C8         -2.5460   -6.7469    4.8530 C.3       1 <0>        -0.1116
     14 C9         -3.6862   -7.3333    3.9841 C.3       1 <0>        -0.1213
     15 C10        -4.9753   -6.7908    4.6351 C.3       1 <0>        -0.1199
     16 C11        -4.5793   -5.5134    5.3963 C.3       1 <0>        -0.1112
     17 C12        -2.4141   -4.8004    6.4362 C.2       1 <0>         0.5030
     18 O2         -1.8009   -3.7468    6.4110 O.co2     1 <0>        -0.6724
     19 O3         -2.5019   -5.4300    7.4765 O.co2     1 <0>        -0.7026
     20 H1          1.0042    1.8801    0.0026 H         1 <0>         0.0741
     21 H2         -0.5455    1.8639   -0.8728 H         1 <0>         0.0731
     22 H3         -0.5286    1.8543    0.9071 H         1 <0>         0.0758
     23 H4         -0.0043   -0.3543   -2.1797 H         1 <0>         0.1947
     24 H5          0.5804   -3.8682    2.0052 H         1 <0>         0.0897
     25 H6          0.5661   -2.4828    3.1227 H         1 <0>         0.0989
     26 H7         -2.0652   -2.8958    2.1835 H         1 <0>         0.3887
     27 H8         -3.5594   -4.0312    3.5719 H         1 <0>         0.3793
     28 H9         -1.6153   -6.6985    4.2877 H         1 <0>         0.0684
     29 H10        -2.4157   -7.3304    5.7644 H         1 <0>         0.0776
     30 H11        -3.6013   -6.9822    2.9557 H         1 <0>         0.0553
     31 H12        -3.6707   -8.4226    4.0188 H         1 <0>         0.0565
     32 H13        -5.7109   -6.5544    3.8663 H         1 <0>         0.0538
     33 H14        -5.3822   -7.5273    5.3280 H         1 <0>         0.0605
     34 H15        -4.7941   -5.6301    6.4585 H         1 <0>         0.0830
     35 H16        -5.1228   -4.6571    4.9968 H         1 <0>         0.0560
@<TRIPOS>BOND
     1    1    2 1
     2    1   20 1
     3    1   21 1
     4    1   22 1
     5    2    6 1
     6    2    3 2
     7    3    4 1
     8    3   23 1
     9    4    5 1
    10    5    6 2
    11    5    7 1
    12    7    8 1
    13    7   24 1
    14    7   25 1
    15    8    9 am
    16    8   26 1
    17    9   10 2
    18    9   11 am
    19   11   12 1
    20   11   27 1
    21   12   16 1
    22   12   13 1
    23   12   17 1
    24   13   14 1
    25   13   28 1
    26   13   29 1
    27   14   15 1
    28   14   30 1
    29   14   31 1
    30   15   16 1
    31   15   32 1
    32   15   33 1
    33   16   34 1
    34   16   35 1
    35   17   18 2
    36   17   19 1
@<TRIPOS>MOLECULE
ZINC61863003
   31    32     0     0     0
SMALL
USER_CHARGES

@<TRIPOS>ATOM
      1 C1         -0.0187    1.5258    0.0104 C.3       1 <0>        -0.1482
      2 C2          0.0021   -0.0041    0.0020 C.3       1 <0>         0.2566
      3 H1          0.5293   -0.3651    0.8851 H         1 <0>         0.0958
      4 C3         -1.4117   -0.5257    0.0127 C.2       1 <0>         0.0404
      5 N1         -2.0479   -1.0630    1.0435 N.2       1 <0>        -0.3765
      6 N2         -3.2332   -1.3803    0.6475 N.2       1 <0>        -0.1937
      7 N3         -3.3605   -1.0608   -0.5932 N.2       1 <0>        -0.1933
      8 N4         -2.2600   -0.5301   -1.0053 N.2       1 <0>        -0.3775
      9 N5          0.6878   -0.4765   -1.2033 N.am      1 <0>        -0.6846
     10 C4          2.0310   -0.5870   -1.2149 C.2       1 <0>         0.5646
     11 O1          2.6733   -0.2946   -0.2255 O.2       1 <0>        -0.5406
     12 C5          2.7237   -1.0642   -2.4325 C.ar      1 <0>         0.0983
     13 C6          4.1137   -1.1805   -2.4328 C.ar      1 <0>        -0.1116
     14 C7          4.7530   -1.6270   -3.5740 C.ar      1 <0>        -0.0573
     15 C8          3.9728   -1.9467   -4.6915 C.ar      1 <0>        -0.0268
     16 C9          2.5830   -1.8038   -4.6140 C.ar      1 <0>         0.1312
     17 N6          2.0132   -1.3814   -3.5091 N.ar      1 <0>        -0.4493
     18 C10         4.5885   -2.4130   -5.8974 C.1       1 <0>        -0.1096
     19 C11         5.0932   -2.7953   -6.8860 C.1       1 <0>        -0.1547
     20 C12         5.7261   -3.2746   -8.1256 C.3       1 <0>         0.1925
     21 O2          4.7191   -3.5286   -9.1072 O.3       1 <0>        -0.5663
     22 H2          1.0039    1.9031    0.0027 H         1 <0>         0.0576
     23 H3         -0.5459    1.8868   -0.8726 H         1 <0>         0.0597
     24 H4         -0.5289    1.8773    0.9072 H         1 <0>         0.0649
     25 H5          0.1751   -0.7099   -1.9930 H         1 <0>         0.4176
     26 H6          4.6837   -0.9244   -1.5519 H         1 <0>         0.1565
     27 H7          5.8280   -1.7265   -3.6030 H         1 <0>         0.1456
     28 H8          1.9722   -2.0474   -5.4707 H         1 <0>         0.1682
     29 H9          6.4143   -2.5162   -8.4989 H         1 <0>         0.0765
     30 H10         6.2746   -4.1941   -7.9214 H         1 <0>         0.0753
     31 H11         5.0649   -3.8481   -9.9518 H         1 <0>         0.3890
@<TRIPOS>BOND
     1    1    2 1
     2    1   22 1
     3    1   23 1
     4    1   24 1
     5    2    3 1
     6    2    9 1
     7    2    4 1
     8    4    5 2
     9    4    8 1
    10    5    6 1
    11    6    7 2
    12    7    8 1
    13    9   10 am
    14    9   25 1
    15   10   11 2
    16   10   12 1
    17   12   17 ar
    18   12   13 ar
    19   13   14 ar
    20   13   26 1
    21   14   15 ar
    22   14   27 1
    23   15   16 ar
    24   15   18 1
    25   16   17 ar
    26   16   28 1
    27   18   19 3
    28   19   20 1
    29   20   21 1
    30   20   29 1
    31   20   30 1
    32   21   31 1
@<TRIPOS>MOLECULE
ZINC23628958
   41    42     0     0     0
SMALL
USER_CHARGES
(2R)-2-[(4-methanesulfonamidophenyl)amino]-N-(2-thienylmethyl)propanamide
@<TRIPOS>ATOM
      1 C1         -5.6265    4.7003    1.1858 C.3       1 <0>        -0.1635
      2 C2         -5.0933    4.9095   -0.2330 C.3       1 <0>         0.1449
      3 H1         -4.1398    5.4578   -0.2200 H         1 <0>         0.0999
      4 C3         -6.1093    5.6716   -1.0441 C.2       1 <0>         0.5175
      5 O1         -6.5803    5.1765   -2.0461 O.2       1 <0>        -0.5374
      6 N1         -6.4945    6.9035   -0.6561 N.am      1 <0>        -0.7391
      7 C4         -7.4822    7.6444   -1.4446 C.3       1 <0>         0.2080
      8 C5         -7.7367    8.9832   -0.8011 C.2       1 <0>        -0.1651
      9 C6         -7.1021   10.1632   -1.0061 C.2       1 <0>        -0.1357
     10 C7         -7.5124   11.2769   -0.2976 C.2       1 <0>        -0.1608
     11 C8         -8.5303   11.1536    0.5891 C.2       1 <0>        -0.1680
     12 S1         -8.9472    9.4246    0.4346 S.3       1 <0>         0.0489
     13 N2         -4.8459    3.6080   -0.8585 N.pl3     1 <0>        -0.7554
     14 C9         -3.6303    2.9477   -0.6433 C.ar      1 <0>         0.1481
     15 C10        -3.3957    1.7142   -1.2362 C.ar      1 <0>        -0.1666
     16 C11        -2.1967    1.0629   -1.0239 C.ar      1 <0>        -0.1206
     17 C12        -1.2256    1.6415   -0.2175 C.ar      1 <0>         0.1815
     18 C13        -1.4622    2.8726    0.3797 C.ar      1 <0>        -0.1757
     19 C14        -2.6593    3.5261    0.1635 C.ar      1 <0>        -0.1714
     20 N3         -0.0102    0.9809   -0.0018 N.2       1 <0>        -1.0722
     21 S2          1.4161    1.8158   -0.1078 S.o2      1 <0>         2.5185
     22 O2          1.2699    2.8999    0.7991 O.2       1 <0>        -1.0430
     23 O3          2.4256    0.8357    0.0914 O.2       1 <0>        -1.0052
     24 C15         1.4705    2.4310   -1.8135 C.3       1 <0>        -0.6982
     25 H2         -4.8849    4.1440    1.7779 H         1 <0>         0.0766
     26 H3         -6.5656    4.1290    1.1440 H         1 <0>         0.0607
     27 H4         -5.8123    5.6775    1.6554 H         1 <0>         0.0591
     28 H5         -6.0673    7.3526    0.2526 H         1 <0>         0.4252
     29 H6         -7.0989    7.7948   -2.4646 H         1 <0>         0.0893
     30 H7         -8.4213    7.0731   -1.4863 H         1 <0>         0.0814
     31 H8         -6.2899   10.2329   -1.7145 H         1 <0>         0.1358
     32 H9         -7.0263   12.2300   -0.4448 H         1 <0>         0.1351
     33 H10        -8.9737   11.9061    1.2244 H         1 <0>         0.1862
     34 H11        -4.1509    1.2643   -1.8637 H         1 <0>         0.1033
     35 H12        -2.0141    0.1036   -1.4853 H         1 <0>         0.1107
     36 H13        -0.7086    3.3205    1.0104 H         1 <0>         0.1386
     37 H14        -2.8417    4.4855    0.6247 H         1 <0>         0.1007
     38 H15         2.3975    3.0028   -1.9676 H         1 <0>         0.0858
     39 H16         0.6031    3.0824   -1.9962 H         1 <0>         0.1017
     40 H17         1.4439    1.5808   -2.5109 H         1 <0>         0.1041
     41 H18        -5.6153    3.1496   -1.4972 H         1 <0>         0.4162
@<TRIPOS>BOND
     1    1    2 1
     2    1   25 1
     3    1   26 1
     4    1   27 1
     5    2    3 1
     6    2    4 1
     7    2   13 1
     8    4    5 2
     9    4    6 am
    10    6    7 1
    11    6   28 1
    12    7    8 1
    13    7   29 1
    14    7   30 1
    15    8   12 1
    16    8    9 2
    17    9   10 1
    18    9   31 1
    19   10   11 2
    20   10   32 1
    21   11   12 1
    22   11   33 1
    23   13   14 1
    24   13   41 1
    25   14   19 ar
    26   14   15 ar
    27   15   16 ar
    28   15   34 1
    29   16   17 ar
    30   16   35 1
    31   17   18 ar
    32   17   20 1
    33   18   19 ar
    34   18   36 1
    35   19   37 1
    36   20   21 1
    37   21   22 2
    38   21   23 2
    39   21   24 1
    40   24   38 1
    41   24   39 1
    42   24   40 1
@<TRIPOS>MOLECULE
ZINC40126119
   42    44     0     0     0
SMALL
USER_CHARGES

@<TRIPOS>ATOM
      1 C1         -0.3790    1.3797    5.2248 C.2       1 <0>        -0.1752
      2 C2          0.1215    0.6847    4.2336 C.2       1 <0>        -0.1527
      3 C3          1.4486   -0.0109    4.3956 C.3       1 <0>         0.0865
      4 O1          1.3571   -1.3386    3.8752 O.3       1 <0>        -0.3126
      5 C4          2.4760   -2.1070    3.9445 C.ar      1 <0>         0.1098
      6 C5          3.6369   -1.5932    4.5079 C.ar      1 <0>        -0.1946
      7 C6          4.7786   -2.3699    4.5808 C.ar      1 <0>        -0.0982
      8 C7          4.7723   -3.6610    4.0942 C.ar      1 <0>        -0.0997
      9 C8          3.6097   -4.1865    3.5263 C.ar      1 <0>        -0.0980
     10 C9          2.4564   -3.4029    3.4587 C.ar      1 <0>        -0.1049
     11 C10         3.5989   -5.5697    3.0037 C.2       1 <0>         0.5045
     12 O2          2.5678   -6.0479    2.5696 O.2       1 <0>        -0.4683
     13 C11         4.8304   -6.3647    3.0085 C.2       1 <0>        -0.5037
     14 C12         5.0668   -7.4827    3.7342 C.2       1 <0>         0.2636
     15 C13         6.4317   -7.9705    3.4436 C.2       1 <0>         0.5121
     16 O3          6.9399   -8.9566    3.9389 O.2       1 <0>        -0.5383
     17 N1          7.0277   -7.1612    2.5491 N.am      1 <0>        -0.7231
     18 C14         6.0783   -6.0980    2.1996 C.3       1 <0>         0.2608
     19 H1          6.4946   -5.1255    2.4624 H         1 <0>         0.0742
     20 C15         5.7613   -6.1459    0.7271 C.ar      1 <0>        -0.0583
     21 C16         5.5383   -7.3620    0.1076 C.ar      1 <0>        -0.0985
     22 C17         5.2473   -7.4093   -1.2430 C.ar      1 <0>        -0.1059
     23 C18         5.1790   -6.2410   -1.9775 C.ar      1 <0>        -0.1531
     24 C19         5.4022   -5.0200   -1.3585 C.ar      1 <0>         0.0967
     25 C20         5.6881   -4.9747   -0.0014 C.ar      1 <0>        -0.1383
     26 O4          5.3355   -3.8694   -2.0787 O.3       1 <0>        -0.5029
     27 O5          4.1932   -8.0612    4.5899 O.3       1 <0>        -0.6519
     28 H2          0.1594    1.4542    6.1581 H         1 <0>         0.0991
     29 H3         -1.3279    1.8818    5.1072 H         1 <0>         0.1066
     30 H4         -0.4168    0.6101    3.3003 H         1 <0>         0.1196
     31 H5          2.2163    0.5401    3.8523 H         1 <0>         0.0706
     32 H6          1.7105   -0.0522    5.4528 H         1 <0>         0.0660
     33 H7          3.6481   -0.5832    4.8902 H         1 <0>         0.1239
     34 H8          5.6783   -1.9645    5.0198 H         1 <0>         0.1259
     35 H9          5.6660   -4.2646    4.1521 H         1 <0>         0.1369
     36 H10         1.5530   -3.8050    3.0243 H         1 <0>         0.1369
     37 H11         7.9249   -7.2642    2.1953 H         1 <0>         0.4069
     38 H12         5.5920   -8.2764    0.6798 H         1 <0>         0.1213
     39 H13         5.0735   -8.3603   -1.7245 H         1 <0>         0.1226
     40 H14         4.9523   -6.2785   -3.0328 H         1 <0>         0.1217
     41 H15         5.8576   -4.0249    0.4838 H         1 <0>         0.1258
     42 H16         4.4544   -3.4718   -2.1040 H         1 <0>         0.3862
@<TRIPOS>BOND
     1    1    2 2
     2    1   28 1
     3    1   29 1
     4    2    3 1
     5    2   30 1
     6    3    4 1
     7    3   31 1
     8    3   32 1
     9    4    5 1
    10    5   10 ar
    11    5    6 ar
    12    6    7 ar
    13    6   33 1
    14    7    8 ar
    15    7   34 1
    16    8    9 ar
    17    8   35 1
    18    9   10 ar
    19    9   11 1
    20   10   36 1
    21   11   12 2
    22   11   13 1
    23   13   18 1
    24   13   14 2
    25   14   15 1
    26   14   27 1
    27   15   16 2
    28   15   17 am
    29   17   18 1
    30   17   37 1
    31   18   19 1
    32   18   20 1
    33   20   25 ar
    34   20   21 ar
    35   21   22 ar
    36   21   38 1
    37   22   23 ar
    38   22   39 1
    39   23   24 ar
    40   23   40 1
    41   24   25 ar
    42   24   26 1
    43   25   41 1
    44   26   42 1
@<TRIPOS>MOLECULE
ZINC50879240
   35    35     0     0     0
SMALL
USER_CHARGES

@<TRIPOS>ATOM
      1 C1          0.3881    1.2711   -0.4433 C.3       1 <0>        -0.1351
      2 C2         -0.0701   -0.1204   -0.0023 C.3       1 <0>         0.1336
      3 H1          0.1062   -0.8332   -0.8079 H         1 <0>         0.1352
      4 C3          0.7055   -0.5410    1.2194 C.2       1 <0>         0.3505
      5 O1          0.2703   -0.1963    2.4432 O.3       1 <0>        -0.6514
      6 C4          1.8486   -1.2712    1.0830 C.2       1 <0>        -0.4118
      7 C5          2.5063   -1.7947    2.2423 C.1       1 <0>         0.3197
      8 N1          3.0281   -2.2100    3.1620 N.1       1 <0>        -0.5343
      9 C6          2.4061   -1.5211   -0.2541 C.2       1 <0>         0.5913
     10 O2          1.9254   -0.9699   -1.2264 O.2       1 <0>        -0.5701
     11 N2          3.4497   -2.3609   -0.4030 N.am      1 <0>        -0.7433
     12 C7          4.0053   -2.6099   -1.7355 C.3       1 <0>         0.1508
     13 C8          5.1551   -3.5781   -1.6274 C.2       1 <0>        -0.1663
     14 C9          5.1530   -4.6792   -2.3370 C.2       1 <0>        -0.1791
     15 N3         -1.5000   -0.0859    0.3149 N.am      1 <0>        -0.7006
     16 C10        -2.4117   -0.2380   -0.6659 C.2       1 <0>         0.5929
     17 O3         -2.0472   -0.4040   -1.8152 O.2       1 <0>        -0.5250
     18 C11        -3.8415   -0.2035   -0.3486 C.2       1 <0>        -0.2154
     19 C12        -4.9289   -0.3434   -1.1980 C.2       1 <0>        -0.0864
     20 C13        -6.1649   -0.2648   -0.6035 C.2       1 <0>        -0.1358
     21 C14        -6.2401   -0.0614    0.7365 C.2       1 <0>        -0.2431
     22 S1         -4.6367    0.0215    1.2309 S.3       1 <0>         0.2710
     23 Br1        -7.7942    0.0862    1.8037 Br        1 <0>         0.0351
     24 H2          1.4520    1.2455   -0.6794 H         1 <0>         0.0761
     25 H3         -0.1729    1.5754   -1.3269 H         1 <0>         0.0540
     26 H4          0.2118    1.9839    0.3622 H         1 <0>         0.0467
     27 H5          3.8330   -2.8003    0.3722 H         1 <0>         0.3941
     28 H6          3.2330   -3.0332   -2.3778 H         1 <0>         0.0661
     29 H7          4.3592   -1.6717   -2.1627 H         1 <0>         0.0700
     30 H8          5.9808   -3.3641   -0.9650 H         1 <0>         0.1113
     31 H9          5.9770   -5.3731   -2.2596 H         1 <0>         0.0981
     32 H10         4.3273   -4.8932   -2.9994 H         1 <0>         0.0992
     33 H11        -1.7904    0.0464    1.2309 H         1 <0>         0.4023
     34 H12        -4.8115   -0.5037   -2.2596 H         1 <0>         0.1570
     35 H13        -7.0639   -0.3631   -1.1939 H         1 <0>         0.1426
@<TRIPOS>BOND
     1    1    2 1
     2    1   24 1
     3    1   25 1
     4    1   26 1
     5    2    3 1
     6    2    4 1
     7    2   15 1
     8    4    5 1
     9    4    6 2
    10    6    7 1
    11    6    9 1
    12    7    8 3
    13    9   10 2
    14    9   11 am
    15   11   12 1
    16   11   27 1
    17   12   13 1
    18   12   28 1
    19   12   29 1
    20   13   14 2
    21   13   30 1
    22   14   31 1
    23   14   32 1
    24   15   16 am
    25   15   33 1
    26   16   17 2
    27   16   18 1
    28   18   22 1
    29   18   19 2
    30   19   20 1
    31   19   34 1
    32   20   21 2
    33   20   35 1
    34   21   22 1
    35   21   23 1
@<TRIPOS>MOLECULE
ZINC58175602
   48    50     0     0     0
SMALL
USER_CHARGES

@<TRIPOS>ATOM
      1 C1         -0.0184    1.5028    0.0103 C.3       1 <0>        -0.0699
      2 C2          0.0021   -0.0041    0.0020 C.ar      1 <0>        -0.1971
      3 C3          0.0057   -0.6876   -1.1988 C.ar      1 <0>        -0.0457
      4 C4          0.0244   -2.0688   -1.2109 C.ar      1 <0>        -0.2846
      5 C5          0.0397   -2.7756   -0.0142 C.ar      1 <0>         0.2545
      6 C6          0.0361   -2.0923    1.1934 C.ar      1 <0>        -0.3142
      7 C7          0.0230   -0.7044    1.2019 C.ar      1 <0>         0.3199
      8 N1          0.0255   -0.0127    2.4153 N.2       1 <0>        -1.0919
      9 S1          0.0504   -0.8483    3.8448 S.o2      1 <0>         2.5218
     10 O1         -1.1746   -1.5681    3.8654 O.2       1 <0>        -1.0304
     11 O2          1.2943   -1.5352    3.8416 O.2       1 <0>        -1.0321
     12 C8          0.0458    0.4298    5.1320 C.3       1 <0>        -0.6389
     13 N2          0.0581   -4.1721   -0.0273 N.pl3     1 <0>        -0.7283
     14 C9          0.0614   -4.8927   -1.3028 C.3       1 <0>         0.1870
     15 H1          0.6399   -4.3308   -2.0361 H         1 <0>         0.1124
     16 C10         0.6809   -6.2528   -1.1097 C.ar      1 <0>        -0.0870
     17 C11         0.3989   -6.9856    0.0280 C.ar      1 <0>        -0.1026
     18 C12         0.9671   -8.2332    0.2051 C.ar      1 <0>        -0.1138
     19 C13         1.8171   -8.7483   -0.7557 C.ar      1 <0>        -0.1182
     20 C14         2.0984   -8.0159   -1.8939 C.ar      1 <0>        -0.1174
     21 C15         1.5267   -6.7701   -2.0730 C.ar      1 <0>        -0.1096
     22 C16        -1.3545   -5.0508   -1.7941 C.2       1 <0>         0.5007
     23 O3         -2.2756   -4.6053   -1.1429 O.2       1 <0>        -0.5048
     24 N3         -1.5971   -5.6871   -2.9571 N.am      1 <0>        -0.7060
     25 C17        -2.9735   -5.8408   -3.4348 C.3       1 <0>         0.0850
     26 C18        -3.3771   -7.2041   -3.9999 C.3       1 <0>        -0.1960
     27 C19        -3.1837   -6.0129   -4.9405 C.3       1 <0>        -0.1908
     28 H2          1.0042    1.8801    0.0026 H         1 <0>         0.0394
     29 H3         -0.5455    1.8639   -0.8728 H         1 <0>         0.0312
     30 H4         -0.5286    1.8543    0.9071 H         1 <0>         0.0670
     31 H5         -0.0065   -0.1408   -2.1301 H         1 <0>         0.0998
     32 H6          0.0268   -2.6000   -2.1512 H         1 <0>         0.0910
     33 H7          0.0479   -2.6391    2.1247 H         1 <0>         0.0991
     34 H8         -0.8534    1.0385    5.0364 H         1 <0>         0.1139
     35 H9          0.0615   -0.0433    6.1138 H         1 <0>         0.0982
     36 H10         0.9264    1.0622    5.0193 H         1 <0>         0.1138
     37 H11         0.0687   -4.6648    0.8082 H         1 <0>         0.3974
     38 H12        -0.2652   -6.5832    0.7787 H         1 <0>         0.1247
     39 H13         0.7473   -8.8054    1.0943 H         1 <0>         0.1241
     40 H14         2.2616   -9.7228   -0.6170 H         1 <0>         0.1217
     41 H15         2.7627   -8.4182   -2.6444 H         1 <0>         0.1240
     42 H16         1.7436   -6.1995   -2.9639 H         1 <0>         0.1259
     43 H17        -0.8604   -6.0434   -3.4779 H         1 <0>         0.3977
     44 H18        -3.7282   -5.2813   -2.8820 H         1 <0>         0.1368
     45 H19        -2.6186   -7.9866   -4.0164 H         1 <0>         0.0949
     46 H20        -4.3975   -7.5418   -3.8189 H         1 <0>         0.0996
     47 H21        -4.0769   -5.5670   -5.3781 H         1 <0>         0.1018
     48 H22        -2.2979   -6.0118   -5.5757 H         1 <0>         0.0959
@<TRIPOS>BOND
     1    1    2 1
     2    1   28 1
     3    1   29 1
     4    1   30 1
     5    2    7 ar
     6    2    3 ar
     7    3    4 ar
     8    3   31 1
     9    4    5 ar
    10    4   32 1
    11    5    6 ar
    12    5   13 1
    13    6    7 ar
    14    6   33 1
    15    7    8 1
    16    8    9 1
    17    9   10 2
    18    9   11 2
    19    9   12 1
    20   12   34 1
    21   12   35 1
    22   12   36 1
    23   13   14 1
    24   13   37 1
    25   14   15 1
    26   14   16 1
    27   14   22 1
    28   16   21 ar
    29   16   17 ar
    30   17   18 ar
    31   17   38 1
    32   18   19 ar
    33   18   39 1
    34   19   20 ar
    35   19   40 1
    36   20   21 ar
    37   20   41 1
    38   21   42 1
    39   22   23 2
    40   22   24 am
    41   24   25 1
    42   24   43 1
    43   25   27 1
    44   25   26 1
    45   25   44 1
    46   26   27 1
    47   26   45 1
    48   26   46 1
    49   27   47 1
    50   27   48 1
@<TRIPOS>MOLECULE
ZINC66585514
   48    49     0     0     0
SMALL
USER_CHARGES

@<TRIPOS>ATOM
      1 C1          0.4868    1.6098   -0.2785 C.3       1 <0>        -0.1195
      2 C2          0.3513    0.1118   -0.1859 C.ar      1 <0>         0.0022
      3 C3          0.1809   -0.6368   -1.3289 C.ar      1 <0>        -0.1307
      4 C4          0.0562   -2.0197   -1.2443 C.ar      1 <0>         0.1942
      5 C5          0.1027   -2.6512   -0.0052 C.ar      1 <0>        -0.1666
      6 C6          0.2723   -1.9087    1.1414 C.ar      1 <0>        -0.0620
      7 C7          0.4041   -0.5196    1.0595 C.ar      1 <0>        -0.1709
      8 C8          0.5922    0.2791    2.2863 C.2       1 <0>         0.5641
      9 O1          0.8149    1.4718    2.2070 O.2       1 <0>        -0.5332
     10 N1          0.5172   -0.3136    3.4944 N.am      1 <0>        -0.7279
     11 C9          0.7039    0.4792    4.7121 C.3       1 <0>         0.1369
     12 C10        -0.6252    1.1247    5.1092 C.3       1 <0>        -0.1646
     13 C11         1.1874   -0.4301    5.8436 C.3       1 <0>        -0.1610
     14 N2         -0.1162   -2.7749   -2.4039 N.am      1 <0>        -0.6859
     15 C12        -0.8793   -2.3017   -3.4089 C.2       1 <0>         0.5011
     16 O2         -1.4886   -1.2623   -3.2701 O.2       1 <0>        -0.4775
     17 C13        -0.9754   -3.0641   -4.7053 C.3       1 <0>        -0.1103
     18 C14        -1.7917   -2.2538   -5.7142 C.3       1 <0>        -0.1220
     19 C15        -1.0380   -0.9625   -6.0294 C.3       1 <0>        -0.0986
     20 C16        -2.0359    0.1601   -6.4290 C.3       1 <0>        -0.0444
     21 S1         -3.3899   -0.1880   -5.2223 S.3       1 <0>        -0.3265
     22 C17        -3.1997   -2.0172   -5.1339 C.3       1 <0>        -0.0112
     23 C18        -1.9211   -3.0557   -6.9836 C.2       1 <0>         0.5037
     24 O3         -2.5014   -4.1278   -6.9709 O.co2     1 <0>        -0.6897
     25 O4         -1.4455   -2.6322   -8.0233 O.co2     1 <0>        -0.6823
     26 H1          1.5426    1.8804   -0.2698 H         1 <0>         0.0736
     27 H2          0.0297    1.9595   -1.2042 H         1 <0>         0.0608
     28 H3         -0.0140    2.0732    0.5716 H         1 <0>         0.0934
     29 H4          0.1437   -0.1497   -2.2921 H         1 <0>         0.1399
     30 H5          0.0052   -3.7250    0.0570 H         1 <0>         0.1301
     31 H6          0.3076   -2.3993    2.1029 H         1 <0>         0.1249
     32 H7          0.3396   -1.2651    3.5576 H         1 <0>         0.3976
     33 H8          1.4452    1.2571    4.5292 H         1 <0>         0.0884
     34 H9         -1.3666    0.3468    5.2922 H         1 <0>         0.0560
     35 H10        -0.4863    1.7145    6.0153 H         1 <0>         0.0642
     36 H11        -0.9697    1.7725    4.3032 H         1 <0>         0.0618
     37 H12         2.1343   -0.8899    5.5607 H         1 <0>         0.0615
     38 H13         1.3264    0.1598    6.7496 H         1 <0>         0.0721
     39 H14         0.4461   -1.2080    6.0266 H         1 <0>         0.0604
     40 H15         0.3131   -3.6407   -2.4871 H         1 <0>         0.4105
     41 H16         0.0256   -3.2349   -5.1014 H         1 <0>         0.0915
     42 H17        -1.4644   -4.0220   -4.5280 H         1 <0>         0.1030
     43 H18        -0.4759   -0.6491   -5.1497 H         1 <0>         0.0587
     44 H19        -0.3467   -1.1404   -6.8531 H         1 <0>         0.0877
     45 H20        -1.6061    1.1490   -6.2695 H         1 <0>         0.0915
     46 H21        -2.3789    0.0397   -7.4566 H         1 <0>         0.0873
     47 H22        -3.9554   -2.5124   -5.7437 H         1 <0>         0.0842
     48 H23        -3.2525   -2.3600   -4.1005 H         1 <0>         0.0836
@<TRIPOS>BOND
     1    1    2 1
     2    1   26 1
     3    1   27 1
     4    1   28 1
     5    2    7 ar
     6    2    3 ar
     7    3    4 ar
     8    3   29 1
     9    4    5 ar
    10    4   14 1
    11    5    6 ar
    12    5   30 1
    13    6    7 ar
    14    6   31 1
    15    7    8 1
    16    8    9 2
    17    8   10 am
    18   10   11 1
    19   10   32 1
    20   11   12 1
    21   11   13 1
    22   11   33 1
    23   12   34 1
    24   12   35 1
    25   12   36 1
    26   13   37 1
    27   13   38 1
    28   13   39 1
    29   14   15 am
    30   14   40 1
    31   15   16 2
    32   15   17 1
    33   17   18 1
    34   17   41 1
    35   17   42 1
    36   18   22 1
    37   18   19 1
    38   18   23 1
    39   19   20 1
    40   19   43 1
    41   19   44 1
    42   20   21 1
    43   20   45 1
    44   20   46 1
    45   21   22 1
    46   22   47 1
    47   22   48 1
    48   23   24 2
    49   23   25 1
@<TRIPOS>MOLECULE
ZINC09381949
   55    59     0     0     0
SMALL
USER_CHARGES
4-(2,6-dimethylmorpholin-4-yl)sulfonyl-N'-BLAHyl-benzohydrazide
@<TRIPOS>ATOM
      1 C1          1.0931  -12.7943   -5.0913 C.3       1 <0>        -0.1475
      2 C2          0.1680  -12.9765   -3.8864 C.3       1 <0>         0.0697
      3 H1         -0.1991  -12.0038   -3.5588 H         1 <0>         0.0675
      4 C3          0.9415  -13.6434   -2.7432 C.3       1 <0>         0.0903
      5 N1         -0.0102  -13.9768   -1.6715 N.pl3     1 <0>        -0.9968
      6 C4         -1.2273  -14.7201   -2.0339 C.3       1 <0>         0.0902
      7 C5         -1.8978  -13.9961   -3.2125 C.3       1 <0>         0.0753
      8 H2         -2.7249  -14.5998   -3.5860 H         1 <0>         0.1178
      9 O1         -0.9369  -13.8060   -4.2538 O.3       1 <0>        -0.3648
     10 C6         -2.4247  -12.6365   -2.7489 C.3       1 <0>        -0.1914
     11 S1          0.2834  -13.5346   -0.1028 S.o2      1 <0>         2.6867
     12 O2          1.6901  -13.3740    0.0174 O.2       1 <0>        -0.9444
     13 O3         -0.4537  -14.4315    0.7167 O.2       1 <0>        -0.9435
     14 C7         -0.4275  -11.9394    0.1305 C.ar      1 <0>        -0.6534
     15 C8         -1.7382  -11.8253    0.5586 C.ar      1 <0>        -0.0212
     16 C9         -2.3007  -10.5793    0.7437 C.ar      1 <0>        -0.0698
     17 C10        -1.5445   -9.4322    0.4977 C.ar      1 <0>        -0.0715
     18 C11        -0.2246   -9.5543    0.0605 C.ar      1 <0>        -0.1066
     19 C12         0.3277  -10.8063   -0.1147 C.ar      1 <0>        -0.0227
     20 C13        -2.1410   -8.0936    0.6935 C.2       1 <0>         0.5630
     21 O4         -3.2923   -7.9903    1.0695 O.2       1 <0>        -0.5087
     22 N2         -1.4082   -6.9879    0.4550 N.am      1 <0>        -0.5100
     23 N3         -1.9734   -5.7195    0.6405 N.pl3     1 <0>        -0.4626
     24 C14        -1.2225   -4.5865    0.3962 C.2       1 <0>         0.4084
     25 N4         -1.5722   -3.3261    0.5113 N.2       1 <0>        -0.5613
     26 C15        -0.7239   -2.3089    0.2356 C.ar      1 <0>         0.1445
     27 C16        -0.9748   -0.9200    0.3187 C.ar      1 <0>        -0.0678
     28 C17         0.0021   -0.0041    0.0020 C.ar      1 <0>         0.0625
     29 C18         1.2700   -0.4220   -0.4102 C.ar      1 <0>         0.0430
     30 C19         1.5447   -1.7754   -0.5021 C.ar      1 <0>        -0.0364
     31 C20         0.5693   -2.6889   -0.1858 C.ar      1 <0>        -0.1522
     32 S2          0.4726   -4.4627   -0.1561 S.3       1 <0>         0.0123
     33 O5          2.0379    0.6786   -0.6564 O.3       1 <0>        -0.2995
     34 C21         1.3645    1.7698   -0.0015 C.3       1 <0>         0.2129
     35 O6         -0.0165    1.3643    0.0095 O.3       1 <0>        -0.3030
     36 H3          1.4584  -13.7675   -5.4194 H         1 <0>         0.0685
     37 H4          0.5425  -12.3201   -5.9037 H         1 <0>         0.0690
     38 H5          1.9376  -12.1655   -4.8092 H         1 <0>         0.0753
     39 H6          1.6977  -12.9570   -2.3622 H         1 <0>         0.0995
     40 H7          1.4200  -14.5533   -3.1054 H         1 <0>         0.0885
     41 H8         -0.9635  -15.7365   -2.3259 H         1 <0>         0.0891
     42 H9         -1.9080  -14.7470   -1.1830 H         1 <0>         0.1009
     43 H10        -2.8953  -12.1239   -3.5878 H         1 <0>         0.0700
     44 H11        -3.1572  -12.7823   -1.9549 H         1 <0>         0.0701
     45 H12        -1.5969  -12.0348   -2.3735 H         1 <0>         0.0607
     46 H13        -2.3222  -12.7137    0.7486 H         1 <0>         0.1521
     47 H14        -3.3237  -10.4916    1.0786 H         1 <0>         0.1529
     48 H15         0.3644   -8.6706   -0.1359 H         1 <0>         0.1370
     49 H16         1.3504  -10.9022   -0.4483 H         1 <0>         0.1513
     50 H17        -0.4894   -7.0703    0.1550 H         1 <0>         0.4268
     51 H18        -2.8921   -5.6371    0.9406 H         1 <0>         0.4554
     52 H19        -1.9471   -0.5729    0.6356 H         1 <0>         0.1477
     53 H20         2.5206   -2.1111   -0.8203 H         1 <0>         0.1482
     54 H21         1.4881    2.6920   -0.5693 H         1 <0>         0.1377
     55 H22         1.7353    1.8931    1.0161 H         1 <0>         0.0902
@<TRIPOS>BOND
     1    1    2 1
     2    1   36 1
     3    1   37 1
     4    1   38 1
     5    2    3 1
     6    2    9 1
     7    2    4 1
     8    4    5 1
     9    4   39 1
    10    4   40 1
    11    5    6 1
    12    5   11 1
    13    6    7 1
    14    6   41 1
    15    6   42 1
    16    7    8 1
    17    7    9 1
    18    7   10 1
    19   10   43 1
    20   10   44 1
    21   10   45 1
    22   11   12 2
    23   11   13 2
    24   11   14 1
    25   14   19 ar
    26   14   15 ar
    27   15   16 ar
    28   15   46 1
    29   16   17 ar
    30   16   47 1
    31   17   18 ar
    32   17   20 1
    33   18   19 ar
    34   18   48 1
    35   19   49 1
    36   20   21 2
    37   20   22 am
    38   22   23 1
    39   22   50 1
    40   23   24 1
    41   23   51 1
    42   24   32 1
    43   24   25 2
    44   25   26 1
    45   26   31 ar
    46   26   27 ar
    47   27   28 ar
    48   27   52 1
    49   28   35 1
    50   28   29 ar
    51   29   30 ar
    52   29   33 1
    53   30   31 ar
    54   30   53 1
    55   31   32 1
    56   33   34 1
    57   34   35 1
    58   34   54 1
    59   34   55 1
@<TRIPOS>MOLECULE
ZINC14247037
   56    60     0     0     0
SMALL
USER_CHARGES
(2S)-N-(3-morpholinosulfonylphenyl)-2-(5H-[1,2,4]triazino[5,6-b]indol-3-ylsulfanyl)propanamide
@<TRIPOS>ATOM
      1 C1         -4.2577   -0.9822    6.8588 C.3       1 <0>        -0.1468
      2 C2         -3.6180   -2.2541    6.2985 C.3       1 <0>        -0.1255
      3 H1         -4.2977   -2.7183    5.5840 H         1 <0>         0.1328
      4 C3         -2.3254   -1.9038    5.6075 C.2       1 <0>         0.5349
      5 O1         -1.2680   -2.0729    6.1771 O.2       1 <0>        -0.4921
      6 N1         -2.3443   -1.4026    4.3565 N.am      1 <0>        -0.6659
      7 C4         -1.1434   -1.1808    3.6735 C.ar      1 <0>         0.1283
      8 C5         -1.0341   -0.1191    2.7846 C.ar      1 <0>        -0.0863
      9 C6          0.1523    0.0968    2.1117 C.ar      1 <0>        -0.1156
     10 C7          1.2328   -0.7394    2.3264 C.ar      1 <0>        -0.0348
     11 C8          1.1255   -1.8005    3.2063 C.ar      1 <0>        -0.6585
     12 C9         -0.0585   -2.0219    3.8825 C.ar      1 <0>        -0.0233
     13 S1          2.5027   -2.8672    3.4707 S.o2      1 <0>         2.6884
     14 O2          2.3224   -3.4530    4.7528 O.2       1 <0>        -0.9422
     15 O3          3.6642   -2.1230    3.1298 O.2       1 <0>        -0.9486
     16 N2          2.3882   -4.0973    2.3680 N.pl3     1 <0>        -1.0007
     17 C10         1.6613   -5.3362    2.6878 C.3       1 <0>         0.0846
     18 C11         0.6748   -5.6218    1.5442 C.3       1 <0>         0.0474
     19 O4          1.3801   -5.6031    0.3008 O.3       1 <0>        -0.3744
     20 C12         1.9675   -4.3398   -0.0200 C.3       1 <0>         0.0468
     21 C13         3.0154   -3.9863    1.0415 C.3       1 <0>         0.0848
     22 S2         -3.2849   -3.4086    7.6521 S.3       1 <0>         0.1233
     23 C14        -4.9328   -3.7565    8.1699 C.ar      1 <0>         0.2469
     24 N3         -5.1343   -4.5936    9.1792 N.ar      1 <0>        -0.4809
     25 C15        -6.3783   -4.8550    9.5686 C.ar      1 <0>         0.3722
     26 C16        -7.4395   -4.2254    8.8858 C.ar      1 <0>         0.0048
     27 C17        -8.6803   -4.6963    9.5251 C.ar      1 <0>        -0.0852
     28 C18       -10.0314   -4.4386    9.3046 C.ar      1 <0>        -0.0410
     29 C19       -10.9826   -5.0492   10.0933 C.ar      1 <0>        -0.1371
     30 C20       -10.5988   -5.9176   11.1035 C.ar      1 <0>        -0.0668
     31 C21        -9.2652   -6.1818   11.3320 C.ar      1 <0>        -0.1303
     32 C22        -8.2902   -5.5750   10.5471 C.ar      1 <0>         0.1523
     33 N4         -6.9069   -5.6532   10.5528 N.pl3     1 <0>        -0.5806
     34 H2         -6.3856   -6.1956   11.1651 H         1 <0>         0.4318
     35 N5         -7.1717   -3.3996    7.8851 N.ar      1 <0>        -0.1272
     36 N6         -5.9494   -3.1711    7.5453 N.ar      1 <0>        -0.3045
     37 H3         -4.4583   -0.2869    6.0436 H         1 <0>         0.0749
     38 H4         -5.1927   -1.2356    7.3586 H         1 <0>         0.0937
     39 H5         -3.5780   -0.5180    7.5733 H         1 <0>         0.0731
     40 H6         -3.1904   -1.1956    3.9297 H         1 <0>         0.4178
     41 H7         -1.8760    0.5370    2.6202 H         1 <0>         0.1377
     42 H8          0.2379    0.9221    1.4204 H         1 <0>         0.1409
     43 H9          2.1610   -0.5659    1.8022 H         1 <0>         0.1427
     44 H10        -0.1405   -2.8485    4.5727 H         1 <0>         0.1516
     45 H11         2.3668   -6.1617    2.7826 H         1 <0>         0.0878
     46 H12         1.1150   -5.2103    3.6226 H         1 <0>         0.1000
     47 H13        -0.1038   -4.8590    1.5325 H         1 <0>         0.0559
     48 H14         0.2218   -6.6022    1.6911 H         1 <0>         0.1084
     49 H15         1.1936   -3.5724   -0.0374 H         1 <0>         0.0565
     50 H16         2.4452   -4.3983   -0.9980 H         1 <0>         0.1089
     51 H17         3.3662   -2.9661    0.8855 H         1 <0>         0.1003
     52 H18         3.8553   -4.6777    0.9735 H         1 <0>         0.0869
     53 H19       -10.3326   -3.7626    8.5180 H         1 <0>         0.1382
     54 H20       -12.0305   -4.8508    9.9235 H         1 <0>         0.1376
     55 H21       -11.3510   -6.3916   11.7165 H         1 <0>         0.1398
     56 H22        -8.9771   -6.8602   12.1214 H         1 <0>         0.1361
@<TRIPOS>BOND
     1    1    2 1
     2    1   37 1
     3    1   38 1
     4    1   39 1
     5    2    3 1
     6    2    4 1
     7    2   22 1
     8    4    5 2
     9    4    6 am
    10    6    7 1
    11    6   40 1
    12    7   12 ar
    13    7    8 ar
    14    8    9 ar
    15    8   41 1
    16    9   10 ar
    17    9   42 1
    18   10   11 ar
    19   10   43 1
    20   11   12 ar
    21   11   13 1
    22   12   44 1
    23   13   14 2
    24   13   15 2
    25   13   16 1
    26   16   21 1
    27   16   17 1
    28   17   18 1
    29   17   45 1
    30   17   46 1
    31   18   19 1
    32   18   47 1
    33   18   48 1
    34   19   20 1
    35   20   21 1
    36   20   49 1
    37   20   50 1
    38   21   51 1
    39   21   52 1
    40   22   23 1
    41   23   36 ar
    42   23   24 ar
    43   24   25 ar
    44   25   33 1
    45   25   26 ar
    46   26   27 1
    47   26   35 ar
    48   27   32 ar
    49   27   28 ar
    50   28   29 ar
    51   28   53 1
    52   29   30 ar
    53   29   54 1
    54   30   31 ar
    55   30   55 1
    56   31   32 ar
    57   31   56 1
    58   32   33 1
    59   33   34 1
    60   35   36 ar
@<TRIPOS>MOLECULE
ZINC33024679
   55    59     0     0     0
SMALL
USER_CHARGES
N-(1,3-benzodioxol-5-yl)-5-[4-[(3,4-difluorophenyl)carbamoyl]piperidine-1-carbonyl]-1,3,4-thiadiazole-2-carboxamide
@<TRIPOS>ATOM
      1 C1          0.3000  -10.1412   -0.4669 C.ar      1 <0>        -0.1253
      2 C2          0.9275  -11.3687   -0.3689 C.ar      1 <0>        -0.0783
      3 C3          2.0717  -11.5051    0.4000 C.ar      1 <0>         0.0218
      4 C4          2.5935  -10.4019    1.0725 C.ar      1 <0>         0.0561
      5 C5          1.9672   -9.1716    0.9699 C.ar      1 <0>        -0.1056
      6 C6          0.8206   -9.0389    0.1977 C.ar      1 <0>         0.1582
      7 N1          0.1866   -7.7954    0.0940 N.am      1 <0>        -0.6536
      8 C7          0.9190   -6.6640    0.0879 C.2       1 <0>         0.6189
      9 O1          2.1332   -6.7258    0.0743 O.2       1 <0>        -0.4909
     10 C8          0.2469   -5.3496    0.0979 C.2       1 <0>        -0.0582
     11 N2         -1.0525   -5.0653    0.1124 N.2       1 <0>        -0.2329
     12 N3         -1.4416   -3.8631    0.1187 N.2       1 <0>        -0.2336
     13 C9         -0.5555   -2.8713    0.1109 C.2       1 <0>        -0.0503
     14 S1          0.9395   -3.7562    0.0932 S.3       1 <0>         0.3398
     15 C10        -0.7815   -1.4120    0.1152 C.2       1 <0>         0.6146
     16 O2          0.1620   -0.6512    0.2088 O.2       1 <0>        -0.5090
     17 N4         -2.0337   -0.9237    0.0152 N.am      1 <0>        -0.5828
     18 C11        -2.2885    0.5168    0.1519 C.3       1 <0>         0.1111
     19 C12        -3.3563    0.7338    1.2226 C.3       1 <0>        -0.1275
     20 C13        -4.5964   -0.0944    0.8784 C.3       1 <0>        -0.1067
     21 C14        -4.2292   -1.5799    0.8540 C.3       1 <0>        -0.1110
     22 C15        -3.1706   -1.8224   -0.2265 C.3       1 <0>         0.0670
     23 C16        -5.6623    0.1422    1.9170 C.2       1 <0>         0.5214
     24 O3         -6.0865   -0.7856    2.5730 O.2       1 <0>        -0.5127
     25 N5         -6.1443    1.3849    2.1170 N.am      1 <0>        -0.6864
     26 C17        -7.0515    1.6251    3.1562 C.ar      1 <0>         0.1742
     27 C18        -6.9417    0.9249    4.3504 C.ar      1 <0>        -0.1048
     28 C19        -7.8371    1.1625    5.3751 C.ar      1 <0>        -0.1027
     29 C20        -8.8445    2.0979    5.2129 C.ar      1 <0>         0.0513
     30 C21        -8.9567    2.7988    4.0216 C.ar      1 <0>         0.0903
     31 C22        -8.0580    2.5676    2.9959 C.ar      1 <0>        -0.1567
     32 F1         -9.9402    3.7117    3.8651 F         1 <0>        -0.1242
     33 F2         -9.7190    2.3286    6.2165 F         1 <0>        -0.1273
     34 O4          3.7108  -10.7937    1.7520 O.3       1 <0>        -0.3069
     35 C23         3.6357  -12.2299    1.8202 C.3       1 <0>         0.2086
     36 O5          2.8631  -12.5878    0.6592 O.3       1 <0>        -0.3025
     37 H1         -0.5940  -10.0385   -1.0640 H         1 <0>         0.1465
     38 H2          0.5234  -12.2238   -0.8903 H         1 <0>         0.1442
     39 H3          2.3700   -8.3154    1.4906 H         1 <0>         0.1458
     40 H4         -0.9094   -7.7415    0.0175 H         1 <0>         0.4548
     41 H5         -1.3595    1.0272    0.4458 H         1 <0>         0.1049
     42 H6         -2.6399    0.9199   -0.8094 H         1 <0>         0.0833
     43 H7         -2.9640    0.4189    2.2008 H         1 <0>         0.0790
     44 H8         -3.6254    1.7997    1.2614 H         1 <0>         0.0885
     45 H9         -4.9878    0.2097   -0.1036 H         1 <0>         0.1079
     46 H10        -3.8282   -1.8746    1.8350 H         1 <0>         0.0783
     47 H11        -5.1264   -2.1758    0.6306 H         1 <0>         0.0910
     48 H12        -3.5968   -1.6156   -1.2193 H         1 <0>         0.0770
     49 H13        -2.8277   -2.8668   -0.1850 H         1 <0>         0.1426
     50 H14        -5.8250    2.2104    1.4639 H         1 <0>         0.4393
     51 H15        -6.1566    0.1944    4.4778 H         1 <0>         0.1486
     52 H16        -7.7512    0.6176    6.3036 H         1 <0>         0.1509
     53 H17        -8.1419    3.1166    2.0696 H         1 <0>         0.1499
     54 H18         4.6511  -12.6519    1.7911 H         1 <0>         0.1358
     55 H19         3.1418  -12.5272    2.7570 H         1 <0>         0.0879
@<TRIPOS>BOND
     1    1    6 ar
     2    1    2 ar
     3    1   37 1
     4    2    3 ar
     5    2   38 1
     6    3   36 1
     7    3    4 ar
     8    4    5 ar
     9    4   34 1
    10    5    6 ar
    11    5   39 1
    12    6    7 1
    13    7    8 am
    14    7   40 1
    15    8    9 2
    16    8   10 1
    17   10   14 1
    18   10   11 2
    19   11   12 1
    20   12   13 2
    21   13   14 1
    22   13   15 1
    23   15   16 2
    24   15   17 am
    25   17   22 1
    26   17   18 1
    27   18   19 1
    28   18   41 1
    29   18   42 1
    30   19   20 1
    31   19   43 1
    32   19   44 1
    33   20   21 1
    34   20   23 1
    35   20   45 1
    36   21   22 1
    37   21   46 1
    38   21   47 1
    39   22   48 1
    40   22   49 1
    41   23   24 2
    42   23   25 am
    43   25   26 1
    44   25   50 1
    45   26   31 ar
    46   26   27 ar
    47   27   28 ar
    48   27   51 1
    49   28   29 ar
    50   28   52 1
    51   29   30 ar
    52   29   33 1
    53   30   31 ar
    54   30   32 1
    55   31   53 1
    56   34   35 1
    57   35   36 1
    58   35   54 1
    59   35   55 1
@<TRIPOS>MOLECULE
ZINC08599028
   60    64     0     0     0
SMALL
USER_CHARGES

@<TRIPOS>ATOM
      1 C1         -0.1368    1.5172    0.0111 C.3       1 <0>        -0.0649
      2 C2         -0.0951    0.0108    0.0027 C.2       1 <0>         0.2670
      3 N1         -0.0787   -0.7502   -1.0879 N.2       1 <0>        -0.5159
      4 C3         -0.0415   -2.0195   -0.7421 C.2       1 <0>         0.3596
      5 C4         -0.0088   -3.2866   -1.4807 C.ar      1 <0>        -0.1190
      6 C5         -0.0133   -3.3306   -2.8732 C.ar      1 <0>        -0.0410
      7 C6          0.0188   -4.5488   -3.5156 C.ar      1 <0>        -0.1391
      8 C7          0.0551   -5.7304   -2.7867 C.ar      1 <0>        -0.0660
      9 C8          0.0598   -5.7099   -1.4108 C.ar      1 <0>        -0.1140
     10 C9          0.0286   -4.4869   -0.7352 C.ar      1 <0>         0.1842
     11 N2          0.0330   -4.4272    0.6184 N.2       1 <0>        -0.5597
     12 C10         0.0036   -3.2890    1.2618 C.2       1 <0>         0.6523
     13 N3         -0.0335   -2.0792    0.6251 N.pl3     1 <0>        -0.3699
     14 N4         -0.0636   -0.7503    1.0685 N.2       1 <0>        -0.3164
     15 N5          0.0105   -3.3096    2.6363 N.pl3     1 <0>        -0.4897
     16 N6          0.0483   -4.5327    3.3185 N.am      1 <0>        -0.5033
     17 C11         0.0549   -4.5528    4.6661 C.2       1 <0>         0.5172
     18 O1          0.0282   -3.5121    5.2882 O.2       1 <0>        -0.5351
     19 C12         0.0956   -5.8685    5.3998 C.3       1 <0>        -0.1116
     20 C13         0.0951   -5.6115    6.9081 C.3       1 <0>        -0.1254
     21 C14         0.1358   -6.9272    7.6418 C.2       1 <0>         0.5188
     22 O2          0.1625   -7.9680    7.0197 O.2       1 <0>        -0.5365
     23 N7          0.1425   -6.9473    8.9894 N.am      1 <0>        -0.6117
     24 C15         0.1042   -5.6943    9.7564 C.3       1 <0>         0.0879
     25 C16        -1.0844   -5.7481   10.7241 C.3       1 <0>         0.1054
     26 N8         -1.0393   -7.0235   11.4529 N.pl3     1 <0>        -0.6272
     27 C17        -1.0010   -8.2766   10.6859 C.3       1 <0>         0.1060
     28 C18         0.1820   -8.2229    9.7183 C.3       1 <0>         0.0958
     29 C19        -1.0324   -7.0444   12.8495 C.ar      1 <0>         0.2312
     30 C20        -0.9522   -5.8549   13.5630 C.ar      1 <0>        -0.1960
     31 C21        -0.9461   -5.8783   14.9437 C.ar      1 <0>        -0.0565
     32 C22        -1.0191   -7.0839   15.6170 C.ar      1 <0>        -0.1697
     33 C23        -1.0990   -8.2708   14.9099 C.ar      1 <0>         0.0163
     34 C24        -1.1114   -8.2536   13.5277 C.ar      1 <0>        -0.1936
     35 Cl1        -1.1899   -9.7821   15.7594 Cl        1 <0>        -0.0694
     36 H1          0.8803    1.9089    0.0036 H         1 <0>         0.0941
     37 H2         -0.6689    1.8708   -0.8720 H         1 <0>         0.0956
     38 H3         -0.6522    1.8614    0.9078 H         1 <0>         0.0905
     39 H4         -0.0422   -2.4152   -3.4455 H         1 <0>         0.1408
     40 H5          0.0154   -4.5852   -4.5950 H         1 <0>         0.1364
     41 H6          0.0796   -6.6770   -3.3062 H         1 <0>         0.1376
     42 H7          0.0881   -6.6355   -0.8551 H         1 <0>         0.1428
     43 H8         -0.0109   -2.4772    3.1339 H         1 <0>         0.4520
     44 H9          0.0696   -5.3651    2.8209 H         1 <0>         0.4399
     45 H10        -0.7792   -6.4611    5.1320 H         1 <0>         0.1126
     46 H11         1.0001   -6.4106    5.1239 H         1 <0>         0.1128
     47 H12         0.9699   -5.0190    7.1760 H         1 <0>         0.1059
     48 H13        -0.8093   -5.0694    7.1840 H         1 <0>         0.1056
     49 H14         1.0303   -5.5821   10.3203 H         1 <0>         0.0788
     50 H15        -0.0165   -4.8520    9.0752 H         1 <0>         0.1012
     51 H16        -1.0188   -4.9206   11.4305 H         1 <0>         0.0993
     52 H17        -2.0164   -5.6802   10.1629 H         1 <0>         0.0714
     53 H18        -0.8803   -9.1189   11.3672 H         1 <0>         0.0972
     54 H19        -1.9271   -8.3887   10.1220 H         1 <0>         0.0703
     55 H20         0.1126   -9.0502    9.0119 H         1 <0>         0.1059
     56 H21         1.1136   -8.2949   10.2794 H         1 <0>         0.0739
     57 H22        -0.8944   -4.9127   13.0383 H         1 <0>         0.1291
     58 H23        -0.8838   -4.9537   15.4985 H         1 <0>         0.1322
     59 H24        -1.0134   -7.0993   16.6969 H         1 <0>         0.1303
     60 H25        -1.1783   -9.1796   12.9759 H         1 <0>         0.1332
@<TRIPOS>BOND
     1    1    2 1
     2    1   36 1
     3    1   37 1
     4    1   38 1
     5    2   14 2
     6    2    3 1
     7    3    4 2
     8    4   13 1
     9    4    5 1
    10    5   10 ar
    11    5    6 ar
    12    6    7 ar
    13    6   39 1
    14    7    8 ar
    15    7   40 1
    16    8    9 ar
    17    8   41 1
    18    9   10 ar
    19    9   42 1
    20   10   11 1
    21   11   12 2
    22   12   13 1
    23   12   15 1
    24   13   14 1
    25   15   16 1
    26   15   43 1
    27   16   17 am
    28   16   44 1
    29   17   18 2
    30   17   19 1
    31   19   20 1
    32   19   45 1
    33   19   46 1
    34   20   21 1
    35   20   47 1
    36   20   48 1
    37   21   22 2
    38   21   23 am
    39   23   28 1
    40   23   24 1
    41   24   25 1
    42   24   49 1
    43   24   50 1
    44   25   26 1
    45   25   51 1
    46   25   52 1
    47   26   27 1
    48   26   29 1
    49   27   28 1
    50   27   53 1
    51   27   54 1
    52   28   55 1
    53   28   56 1
    54   29   34 ar
    55   29   30 ar
    56   30   31 ar
    57   30   57 1
    58   31   32 ar
    59   31   58 1
    60   32   33 ar
    61   32   59 1
    62   33   34 ar
    63   33   35 1
    64   34   60 1
@<TRIPOS>MOLECULE
ZINC20442806
   60    65     0     0     0
SMALL
USER_CHARGES

@<TRIPOS>ATOM
      1 C1          0.9316   -0.5744    1.1775 C.ar      1 <0>        -0.0128
      2 C2          2.0840    0.1091    1.4439 C.ar      1 <0>        -0.1534
      3 C3          2.3174    1.3440    0.8475 C.ar      1 <0>         0.1637
      4 C4          1.3798    1.8909   -0.0228 C.ar      1 <0>        -0.2210
      5 C5          0.2235    1.2172   -0.2967 C.ar      1 <0>        -0.0313
      6 C6         -0.0171   -0.0286    0.3007 C.ar      1 <0>        -0.1473
      7 C7         -1.2545   -0.7565    0.0105 C.2       1 <0>         0.1048
      8 C8         -1.2360   -2.1286   -0.1010 C.2       1 <0>        -0.2348
      9 C9         -2.4912   -2.9257   -0.2134 C.2       1 <0>         0.4615
     10 N1         -3.5647   -2.4935   -0.8190 N.2       1 <0>        -0.6580
     11 N2         -2.4033   -4.1928    0.3984 N.pl3     1 <0>        -0.4149
     12 C10        -1.1470   -4.7517    0.5339 C.2       1 <0>         0.4307
     13 N3          0.0015   -4.1884    0.2748 N.2       1 <0>        -0.5330
     14 C11         0.0340   -2.8951   -0.1221 C.2       1 <0>         0.5458
     15 O1          1.0754   -2.3730   -0.4826 O.2       1 <0>        -0.4252
     16 S1         -1.4937   -6.3807    1.1431 S.3       1 <0>         0.1571
     17 C12        -3.2653   -6.2138    1.3060 C.2       1 <0>         0.2226
     18 N4         -3.4751   -4.9253    0.8658 N.pl3     1 <0>        -0.5147
     19 C13        -4.1755   -7.1271    1.7511 C.2       1 <0>        -0.2741
     20 C14        -5.5384   -6.7930    1.8014 C.2       1 <0>         0.5907
     21 O2         -5.9081   -5.6867    1.4473 O.2       1 <0>        -0.5786
     22 N5         -6.4377   -7.6953    2.2412 N.am      1 <0>        -0.6141
     23 C15        -6.1300   -9.0570    2.7024 C.3       1 <0>         0.0973
     24 C16        -7.4682   -9.7256    3.0817 C.3       1 <0>        -0.1336
     25 C17        -8.5087   -8.9003    2.2795 C.3       1 <0>        -0.1352
     26 C18        -7.8922   -7.4783    2.3454 C.3       1 <0>         0.1052
     27 O3          3.4638    2.0181    1.1160 O.3       1 <0>        -0.3026
     28 C19         3.6405    3.2806    0.4703 C.3       1 <0>         0.1044
     29 C20         4.9605    3.8771    0.8860 C.ar      1 <0>        -0.0909
     30 C21         5.0287    4.6919    2.0009 C.ar      1 <0>        -0.0809
     31 C22         6.2373    5.2409    2.3865 C.ar      1 <0>        -0.1034
     32 C23         7.3840    4.9760    1.6554 C.ar      1 <0>         0.0451
     33 C24         7.3153    4.1552    0.5324 C.ar      1 <0>         0.0292
     34 C25         6.1016    3.6037    0.1551 C.ar      1 <0>        -0.0747
     35 O4          8.5643    4.0501   -0.0081 O.3       1 <0>        -0.3066
     36 C26         9.3195    5.1395    0.5541 C.3       1 <0>         0.2127
     37 O5          8.6760    5.3849    1.8186 O.3       1 <0>        -0.3070
     38 H1          0.7535   -1.5351    1.6376 H         1 <0>         0.1232
     39 H2          2.8152   -0.3100    2.1192 H         1 <0>         0.1369
     40 H3          1.5664    2.8502   -0.4825 H         1 <0>         0.1353
     41 H4         -0.5039    1.6430   -0.9719 H         1 <0>         0.1338
     42 H5         -2.1814   -0.2169   -0.1161 H         1 <0>         0.1531
     43 H6         -4.3554   -3.0537   -0.8633 H         1 <0>         0.3558
     44 H7         -3.8479   -8.1073    2.0648 H         1 <0>         0.1629
     45 H8         -4.3643   -4.5381    0.8845 H         1 <0>         0.4498
     46 H9         -5.6483   -9.6193    1.9025 H         1 <0>         0.0734
     47 H10        -5.4767   -9.0144    3.5739 H         1 <0>         0.0735
     48 H11        -7.4800  -10.7696    2.7688 H         1 <0>         0.0852
     49 H12        -7.6517   -9.6408    4.1528 H         1 <0>         0.0788
     50 H13        -8.5774   -9.2527    1.2504 H         1 <0>         0.0775
     51 H14        -9.4844   -8.9240    2.7649 H         1 <0>         0.0861
     52 H15        -8.1373   -6.9995    3.2934 H         1 <0>         0.0697
     53 H16        -8.2461   -6.8728    1.5110 H         1 <0>         0.0793
     54 H17         3.6295    3.1405   -0.6106 H         1 <0>         0.0784
     55 H18         2.8317    3.9522    0.7579 H         1 <0>         0.0806
     56 H19         4.1357    4.9001    2.5715 H         1 <0>         0.1420
     57 H20         6.2877    5.8771    3.2578 H         1 <0>         0.1408
     58 H21         6.0462    2.9633   -0.7127 H         1 <0>         0.1390
     59 H22        10.3591    4.8479    0.7036 H         1 <0>         0.1347
     60 H23         9.2558    6.0199   -0.0853 H         1 <0>         0.0873
@<TRIPOS>BOND
     1    1    6 ar
     2    1    2 ar
     3    1   38 1
     4    2    3 ar
     5    2   39 1
     6    3    4 ar
     7    3   27 1
     8    4    5 ar
     9    4   40 1
    10    5    6 ar
    11    5   41 1
    12    6    7 1
    13    7    8 2
    14    7   42 1
    15    8   14 1
    16    8    9 1
    17    9   10 2
    18    9   11 1
    19   10   43 1
    20   11   12 1
    21   11   18 1
    22   12   13 2
    23   12   16 1
    24   13   14 1
    25   14   15 2
    26   16   17 1
    27   17   19 2
    28   17   18 1
    29   18   45 1
    30   19   20 1
    31   19   44 1
    32   20   21 2
    33   20   22 am
    34   22   26 1
    35   22   23 1
    36   23   24 1
    37   23   46 1
    38   23   47 1
    39   24   25 1
    40   24   48 1
    41   24   49 1
    42   25   26 1
    43   25   50 1
    44   25   51 1
    45   26   52 1
    46   26   53 1
    47   27   28 1
    48   28   29 1
    49   28   54 1
    50   28   55 1
    51   29   34 ar
    52   29   30 ar
    53   30   31 ar
    54   30   56 1
    55   31   32 ar
    56   31   57 1
    57   32   37 1
    58   32   33 ar
    59   33   34 ar
    60   33   35 1
    61   34   58 1
    62   35   36 1
    63   36   37 1
    64   36   59 1
    65   36   60 1
@<TRIPOS>MOLECULE
ZINC35097283
   28    28     0     0     0
SMALL
USER_CHARGES

@<TRIPOS>ATOM
      1 C1         -0.0167    1.3826    0.0096 C.ar      1 <0>        -0.1567
      2 C2          1.1654    2.0910    0.0022 C.ar      1 <0>        -0.0423
      3 C3          2.3847    1.4103   -0.0131 C.ar      1 <0>        -0.1370
      4 C4          2.3986    0.0123   -0.0207 C.ar      1 <0>         0.0411
      5 C5          1.2086   -0.6862   -0.0131 C.ar      1 <0>        -0.1593
      6 C6          0.0021   -0.0041    0.0020 C.ar      1 <0>         0.1374
      7 F1         -1.1602   -0.6928    0.0094 F         1 <0>        -0.1278
      8 Cl1         3.9092   -0.8428   -0.0402 Cl        1 <0>        -0.0141
      9 C7          3.6543    2.1641   -0.0217 C.2       1 <0>         0.5549
     10 O1          4.7144    1.5691   -0.0349 O.2       1 <0>        -0.5141
     11 N1          3.6379    3.5117   -0.0148 N.am      1 <0>        -0.7087
     12 C8          4.8976    4.2596   -0.0232 C.3       1 <0>         0.1013
     13 C9          4.6043    5.7378   -0.0130 C.2       1 <0>         0.4974
     14 O2          3.4560    6.1281    0.0001 O.2       1 <0>        -0.5615
     15 N2          5.6179    6.6260   -0.0184 N.am      1 <0>        -0.6894
     16 C10         5.3328    8.0630   -0.0084 C.3       1 <0>         0.0499
     17 C11         6.6285    8.8323   -0.0172 C.2       1 <0>         0.4898
     18 O3          7.6917    8.2356   -0.0305 O.co2     1 <0>        -0.6903
     19 O4          6.6137   10.0514   -0.0109 O.co2     1 <0>        -0.6865
     20 H1         -0.9599    1.9084    0.0260 H         1 <0>         0.1503
     21 H2          1.1488    3.1709    0.0077 H         1 <0>         0.1505
     22 H3          1.2173   -1.7662   -0.0189 H         1 <0>         0.1529
     23 H4          2.7921    3.9864   -0.0042 H         1 <0>         0.4097
     24 H5          5.4809    3.9989    0.8598 H         1 <0>         0.1020
     25 H6          5.4637    4.0078   -0.9200 H         1 <0>         0.1020
     26 H7          6.5363    6.3139   -0.0289 H         1 <0>         0.4119
     27 H8          4.7494    8.3237   -0.8915 H         1 <0>         0.0684
     28 H9          4.7667    8.3148    0.8883 H         1 <0>         0.0684
@<TRIPOS>BOND
     1    1    6 ar
     2    1    2 ar
     3    1   20 1
     4    2    3 ar
     5    2   21 1
     6    3    4 ar
     7    3    9 1
     8    4    5 ar
     9    4    8 1
    10    5    6 ar
    11    5   22 1
    12    6    7 1
    13    9   10 2
    14    9   11 am
    15   11   12 1
    16   11   23 1
    17   12   13 1
    18   12   24 1
    19   12   25 1
    20   13   14 2
    21   13   15 am
    22   15   16 1
    23   15   26 1
    24   16   17 1
    25   16   27 1
    26   16   28 1
    27   17   18 2
    28   17   19 1
@<TRIPOS>MOLECULE
ZINC40574570
   40    40     0     0     0
SMALL
USER_CHARGES

@<TRIPOS>ATOM
      1 C1         -0.0187    1.5258    0.0104 C.3       1 <0>        -0.1564
      2 C2          0.0021   -0.0041    0.0020 C.3       1 <0>         0.2072
      3 H1          0.5123   -0.3556   -0.8948 H         1 <0>         0.0981
      4 C3          0.7309   -0.5033    1.2229 C.ar      1 <0>        -0.1341
      5 C4          2.0539   -0.9094    1.1337 C.ar      1 <0>        -0.0635
      6 C5          2.6842   -1.3614    2.2827 C.ar      1 <0>        -0.1692
      7 C6          1.9781   -1.3920    3.4706 C.ar      1 <0>         0.0919
      8 N1          0.7206   -0.9984    3.5181 N.ar      1 <0>        -0.4824
      9 C7          0.0912   -0.5568    2.4465 C.ar      1 <0>         0.1048
     10 N2         -1.3723   -0.5112    0.0124 N.am      1 <0>        -0.7494
     11 C8         -2.0508   -0.6427   -1.1446 C.2       1 <0>         0.7103
     12 O1         -1.5223   -0.3406   -2.1971 O.2       1 <0>        -0.5940
     13 N3         -3.3153   -1.1092   -1.1351 N.am      1 <0>        -0.7076
     14 C9         -4.0528   -1.2522   -2.3928 C.3       1 <0>         0.1027
     15 H2         -3.7712   -0.4481   -3.0726 H         1 <0>         0.0785
     16 C10        -3.7207   -2.5809   -3.0215 C.2       1 <0>         0.4951
     17 O2         -3.0895   -3.4125   -2.3919 O.co2     1 <0>        -0.6891
     18 O3         -4.0834   -2.8243   -4.1598 O.co2     1 <0>        -0.6951
     19 C11        -5.5555   -1.1814   -2.1137 C.3       1 <0>        -0.0615
     20 C12        -5.8926    0.1676   -1.4753 C.3       1 <0>        -0.1350
     21 C13        -6.3257   -1.3307   -3.4272 C.3       1 <0>        -0.1385
     22 C14        -5.9507   -2.3102   -1.1595 C.3       1 <0>        -0.1348
     23 H3          1.0039    1.9031    0.0027 H         1 <0>         0.0619
     24 H4         -0.5459    1.8868   -0.8726 H         1 <0>         0.0700
     25 H5         -0.5289    1.8773    0.9072 H         1 <0>         0.0555
     26 H6          2.5805   -0.8747    0.1915 H         1 <0>         0.1378
     27 H7          3.7138   -1.6858    2.2500 H         1 <0>         0.1358
     28 H8          2.4619   -1.7428    4.3702 H         1 <0>         0.1546
     29 H9         -0.9376   -0.2378    2.5253 H         1 <0>         0.1525
     30 H10        -1.7940   -0.7522    0.8520 H         1 <0>         0.3892
     31 H11        -3.7369   -1.3503   -0.2954 H         1 <0>         0.3850
     32 H12        -5.6110    0.9717   -2.1551 H         1 <0>         0.0504
     33 H13        -6.9631    0.2181   -1.2765 H         1 <0>         0.0487
     34 H14        -5.3438    0.2740   -0.5396 H         1 <0>         0.0483
     35 H15        -6.0855   -2.2918   -3.8820 H         1 <0>         0.0883
     36 H16        -7.3962   -1.2803   -3.2284 H         1 <0>         0.0394
     37 H17        -6.0441   -0.5266   -4.1070 H         1 <0>         0.0479
     38 H18        -5.4020   -2.2038   -0.2237 H         1 <0>         0.0448
     39 H19        -7.0213   -2.2597   -0.9607 H         1 <0>         0.0469
     40 H20        -5.7106   -3.2712   -1.6143 H         1 <0>         0.0650
@<TRIPOS>BOND
     1    1    2 1
     2    1   23 1
     3    1   24 1
     4    1   25 1
     5    2    3 1
     6    2    4 1
     7    2   10 1
     8    4    9 ar
     9    4    5 ar
    10    5    6 ar
    11    5   26 1
    12    6    7 ar
    13    6   27 1
    14    7    8 ar
    15    7   28 1
    16    8    9 ar
    17    9   29 1
    18   10   11 am
    19   10   30 1
    20   11   12 2
    21   11   13 am
    22   13   14 1
    23   13   31 1
    24   14   15 1
    25   14   16 1
    26   14   19 1
    27   16   17 2
    28   16   18 1
    29   19   20 1
    30   19   21 1
    31   19   22 1
    32   20   32 1
    33   20   33 1
    34   20   34 1
    35   21   35 1
    36   21   36 1
    37   21   37 1
    38   22   38 1
    39   22   39 1
    40   22   40 1
@<TRIPOS>MOLECULE
ZINC49238592
   38    39     0     0     0
SMALL
USER_CHARGES

@<TRIPOS>ATOM
      1 C1         -0.0187    1.5258    0.0104 C.3       1 <0>        -0.1396
      2 C2          0.0021   -0.0041    0.0020 C.3       1 <0>        -0.0205
      3 C3          0.7421   -0.5109    1.2415 C.3       1 <0>        -0.1420
      4 C4         -1.4117   -0.5257    0.0127 C.2       1 <0>         0.0954
      5 C5         -2.1015   -0.6775    1.1696 C.2       1 <0>        -0.3109
      6 S1         -3.6542   -1.3058    0.5514 S.3       1 <0>         0.2296
      7 C6         -3.2683   -1.3090   -1.0868 C.2       1 <0>         0.2891
      8 N1         -2.0356   -0.8500   -1.1050 N.2       1 <0>        -0.5761
      9 N2         -4.0614   -1.6973   -2.1603 N.am      1 <0>        -0.6289
     10 C7         -5.3158   -2.1408   -1.9456 C.2       1 <0>         0.7114
     11 O1         -5.7538   -2.2013   -0.8131 O.2       1 <0>        -0.5286
     12 N3         -6.0848   -2.5173   -2.9865 N.am      1 <0>        -0.7001
     13 C8         -7.4484   -2.9994   -2.7532 C.3       1 <0>         0.1440
     14 C9         -7.4047   -4.2396   -1.8583 C.3       1 <0>        -0.1395
     15 C10        -8.0983   -3.3585   -4.0910 C.3       1 <0>        -0.1507
     16 C11        -9.3223   -2.5479   -4.5218 C.3       1 <0>        -0.1772
     17 C12        -9.4892   -3.9945   -4.0525 C.3       1 <0>        -0.1584
     18 C13        -8.2540   -1.9201   -2.0770 C.2       1 <0>         0.5074
     19 O2         -7.7370   -0.8476   -1.8143 O.co2     1 <0>        -0.6729
     20 O3         -9.4227   -2.1194   -1.7926 O.co2     1 <0>        -0.6909
     21 H1          1.0039    1.9031    0.0027 H         1 <0>         0.0571
     22 H2         -0.5459    1.8868   -0.8726 H         1 <0>         0.0560
     23 H3         -0.5289    1.8773    0.9072 H         1 <0>         0.0560
     24 H4          0.5123   -0.3556   -0.8948 H         1 <0>         0.0811
     25 H5          0.2319   -0.1594    2.1383 H         1 <0>         0.0585
     26 H6          0.7568   -1.6008    1.2356 H         1 <0>         0.0560
     27 H7          1.7647   -0.1336    1.2338 H         1 <0>         0.0581
     28 H8         -1.7959   -0.4746    2.1854 H         1 <0>         0.1855
     29 H9         -3.7119   -1.6490   -3.0639 H         1 <0>         0.4121
     30 H10        -5.7354   -2.4691   -3.8901 H         1 <0>         0.3866
     31 H11        -6.9417   -3.9838   -0.9052 H         1 <0>         0.0696
     32 H12        -8.4193   -4.5983   -1.6847 H         1 <0>         0.0671
     33 H13        -6.8221   -5.0202   -2.3473 H         1 <0>         0.0372
     34 H14        -7.4142   -3.6910   -4.8717 H         1 <0>         0.0930
     35 H15        -9.6646   -1.7589   -3.8523 H         1 <0>         0.1195
     36 H16        -9.4437   -2.3470   -5.5863 H         1 <0>         0.0772
     37 H17        -9.7204   -4.7453   -4.8081 H         1 <0>         0.0809
     38 H18        -9.9414   -4.1572   -3.0741 H         1 <0>         0.1079
@<TRIPOS>BOND
     1    1    2 1
     2    1   21 1
     3    1   22 1
     4    1   23 1
     5    2    3 1
     6    2    4 1
     7    2   24 1
     8    3   25 1
     9    3   26 1
    10    3   27 1
    11    4    8 1
    12    4    5 2
    13    5    6 1
    14    5   28 1
    15    6    7 1
    16    7    8 2
    17    7    9 1
    18    9   10 am
    19    9   29 1
    20   10   11 2
    21   10   12 am
    22   12   13 1
    23   12   30 1
    24   13   14 1
    25   13   15 1
    26   13   18 1
    27   14   31 1
    28   14   32 1
    29   14   33 1
    30   15   17 1
    31   15   16 1
    32   15   34 1
    33   16   17 1
    34   16   35 1
    35   16   36 1
    36   17   37 1
    37   17   38 1
    38   18   19 2
    39   18   20 1
@<TRIPOS>MOLECULE
ZINC54525885
   36    37     0     0     0
SMALL
USER_CHARGES

@<TRIPOS>ATOM
      1 C1         -0.0167    1.3805    0.0096 C.ar      1 <0>        -0.1569
      2 C2          1.1704    2.0883    0.0021 C.ar      1 <0>        -0.0170
      3 C3          2.3774    1.4152   -0.0130 C.ar      1 <0>        -0.1581
      4 C4          2.3986    0.0307   -0.0206 C.ar      1 <0>         0.1320
      5 C5          1.2103   -0.6792   -0.0131 C.ar      1 <0>        -0.1970
      6 C6          0.0021   -0.0041    0.0020 C.ar      1 <0>         0.1336
      7 F1         -1.1584   -0.6957    0.0098 F         1 <0>        -0.1303
      8 F2          3.5786   -0.6270   -0.0358 F         1 <0>        -0.1314
      9 C7          1.1486    3.5951    0.0098 C.3       1 <0>        -0.0944
     10 C8          1.1547    4.0978    1.4549 C.3       1 <0>         0.1463
     11 N1          1.1335    5.5627    1.4624 N.am      1 <0>        -0.7544
     12 C9          1.1347    6.2306    2.6330 C.2       1 <0>         0.7044
     13 O1          1.1533    5.6175    3.6828 O.2       1 <0>        -0.5922
     14 N2          1.1152    7.5782    2.6399 N.am      1 <0>        -0.7094
     15 C10         1.1165    8.3043    3.9124 C.3       1 <0>         0.1227
     16 H1          1.7206    7.7618    4.6396 H         1 <0>         0.0814
     17 C11         1.7040    9.7012    3.7019 C.3       1 <0>        -0.1401
     18 C12         3.0629    9.9994    4.3385 C.3       1 <0>        -0.1873
     19 C13         1.7923   10.6215    4.9209 C.3       1 <0>        -0.1635
     20 C14        -0.2962    8.4252    4.4231 C.2       1 <0>         0.4966
     21 O2         -0.5087    8.4728    5.6228 O.co2     1 <0>        -0.6932
     22 O3         -1.2265    8.4754    3.6368 O.co2     1 <0>        -0.6930
     23 H2         -0.9593    1.9075    0.0260 H         1 <0>         0.1463
     24 H3          3.3044    1.9693   -0.0192 H         1 <0>         0.1447
     25 H4          1.2259   -1.7591   -0.0193 H         1 <0>         0.1473
     26 H5          2.0284    3.9739   -0.5103 H         1 <0>         0.0874
     27 H6          0.2487    3.9481   -0.4938 H         1 <0>         0.0890
     28 H7          0.2749    3.7191    1.9751 H         1 <0>         0.0675
     29 H8          2.0546    3.7449    1.9586 H         1 <0>         0.0661
     30 H9          1.1187    6.0518    0.6249 H         1 <0>         0.3924
     31 H10         1.1004    8.0674    1.8024 H         1 <0>         0.3879
     32 H11         1.4874   10.1620    2.7381 H         1 <0>         0.1002
     33 H12         3.5384    9.2003    4.9073 H         1 <0>         0.0906
     34 H13         3.7408   10.6563    3.7935 H         1 <0>         0.0866
     35 H14         1.6342   11.6878    4.7591 H         1 <0>         0.0888
     36 H15         1.4318   10.2318    5.8729 H         1 <0>         0.1067
@<TRIPOS>BOND
     1    1    6 ar
     2    1    2 ar
     3    1   23 1
     4    2    3 ar
     5    2    9 1
     6    3    4 ar
     7    3   24 1
     8    4    5 ar
     9    4    8 1
    10    5    6 ar
    11    5   25 1
    12    6    7 1
    13    9   10 1
    14    9   26 1
    15    9   27 1
    16   10   11 1
    17   10   28 1
    18   10   29 1
    19   11   12 am
    20   11   30 1
    21   12   13 2
    22   12   14 am
    23   14   15 1
    24   14   31 1
    25   15   16 1
    26   15   17 1
    27   15   20 1
    28   17   19 1
    29   17   18 1
    30   17   32 1
    31   18   19 1
    32   18   33 1
    33   18   34 1
    34   19   35 1
    35   19   36 1
    36   20   21 2
    37   20   22 1
@<TRIPOS>MOLECULE
ZINC62100750
   41    41     0     0     0
SMALL
USER_CHARGES

@<TRIPOS>ATOM
      1 C1         -0.0187    1.5258    0.0104 C.3       1 <0>        -0.1478
      2 C2          0.0021   -0.0041    0.0020 C.3       1 <0>        -0.0971
      3 C3          0.7421   -0.5109    1.2415 C.3       1 <0>        -0.1493
      4 C4         -1.4333   -0.5336    0.0129 C.3       1 <0>        -0.1123
      5 C5         -1.4157   -2.0577   -0.1212 C.3       1 <0>        -0.1303
      6 C6         -2.8510   -2.5872   -0.1103 C.3       1 <0>         0.1431
      7 N1         -2.8341   -4.0465   -0.2387 N.am      1 <0>        -0.7588
      8 C7         -3.9926   -4.7352   -0.2528 C.2       1 <0>         0.7129
      9 O1         -5.0517   -4.1454   -0.1590 O.2       1 <0>        -0.5694
     10 N2         -3.9770   -6.0777   -0.3709 N.am      1 <0>        -0.7195
     11 C8         -5.2362   -6.8263   -0.3863 C.3       1 <0>         0.1465
     12 C9         -5.9925   -6.5790    0.9205 C.3       1 <0>        -0.1368
     13 C10        -4.9395   -8.3205   -0.5289 C.3       1 <0>        -0.1476
     14 C11        -5.4418   -9.0231   -1.7918 C.3       1 <0>        -0.1784
     15 C12        -6.1231   -9.2866   -0.4474 C.3       1 <0>        -0.1611
     16 C13        -6.0788   -6.3683   -1.5487 C.2       1 <0>         0.5073
     17 O2         -5.6658   -5.4973   -2.2952 O.co2     1 <0>        -0.6740
     18 O3         -7.1735   -6.8688   -1.7427 O.co2     1 <0>        -0.6986
     19 H1          1.0039    1.9031    0.0027 H         1 <0>         0.0515
     20 H2         -0.5459    1.8868   -0.8726 H         1 <0>         0.0544
     21 H3         -0.5289    1.8773    0.9072 H         1 <0>         0.0537
     22 H4          0.5123   -0.3556   -0.8948 H         1 <0>         0.0689
     23 H5          0.2319   -0.1594    2.1383 H         1 <0>         0.0535
     24 H6          0.7568   -1.6008    1.2356 H         1 <0>         0.0573
     25 H7          1.7647   -0.1336    1.2338 H         1 <0>         0.0502
     26 H8         -1.9156   -0.2570    0.9504 H         1 <0>         0.0648
     27 H9         -1.9862   -0.1019   -0.8214 H         1 <0>         0.0661
     28 H10        -0.9334   -2.3344   -1.0587 H         1 <0>         0.0661
     29 H11        -0.8628   -2.4894    0.7131 H         1 <0>         0.0672
     30 H12        -3.3333   -2.3105    0.8272 H         1 <0>         0.0575
     31 H13        -3.4039   -2.1555   -0.9446 H         1 <0>         0.0615
     32 H14        -1.9892   -4.5170   -0.3136 H         1 <0>         0.3857
     33 H15        -3.1321   -6.5482   -0.4458 H         1 <0>         0.3787
     34 H16        -6.2039   -5.5145    1.0221 H         1 <0>         0.0686
     35 H17        -6.9294   -7.1360    0.9091 H         1 <0>         0.0616
     36 H18        -5.3831   -6.9102    1.7613 H         1 <0>         0.0335
     37 H19        -3.9889   -8.6529   -0.1119 H         1 <0>         0.0904
     38 H20        -5.9836   -8.4208   -2.5211 H         1 <0>         0.1187
     39 H21        -4.8215   -9.8179   -2.2060 H         1 <0>         0.0753
     40 H22        -5.9510  -10.2548    0.0228 H         1 <0>         0.0790
     41 H23        -7.1131   -8.8578   -0.2923 H         1 <0>         0.1069
@<TRIPOS>BOND
     1    1    2 1
     2    1   19 1
     3    1   20 1
     4    1   21 1
     5    2    3 1
     6    2    4 1
     7    2   22 1
     8    3   23 1
     9    3   24 1
    10    3   25 1
    11    4    5 1
    12    4   26 1
    13    4   27 1
    14    5    6 1
    15    5   28 1
    16    5   29 1
    17    6    7 1
    18    6   30 1
    19    6   31 1
    20    7    8 am
    21    7   32 1
    22    8    9 2
    23    8   10 am
    24   10   11 1
    25   10   33 1
    26   11   12 1
    27   11   13 1
    28   11   16 1
    29   12   34 1
    30   12   35 1
    31   12   36 1
    32   13   15 1
    33   13   14 1
    34   13   37 1
    35   14   15 1
    36   14   38 1
    37   14   39 1
    38   15   40 1
    39   15   41 1
    40   16   17 2
    41   16   18 1
@<TRIPOS>MOLECULE
ZINC19485057
   34    35     0     0     0
SMALL
USER_CHARGES
(2S)-2-(1H-benzimidazole-5-carbonylamino)-4-methylsulfanyl-butanoic acid
@<TRIPOS>ATOM
      1 C1          6.3828    3.4980   -4.5727 C.3       1 <0>        -0.1236
      2 S1          6.9209    3.2835   -2.8536 S.3       1 <0>        -0.2728
      3 C2          5.6463    2.2185   -2.1245 C.3       1 <0>        -0.0765
      4 C3          5.9817    1.9544   -0.6552 C.3       1 <0>        -0.0909
      5 C4          4.9067    1.0561   -0.0402 C.3       1 <0>         0.1114
      6 H1          4.7696    0.1406   -0.6344 H         1 <0>         0.0916
      7 C5          5.2993    0.6957    1.3694 C.2       1 <0>         0.4595
      8 O1          4.5832    1.0020    2.2931 O.co2     1 <0>        -0.6250
      9 O2          6.4447    0.0344    1.5988 O.co2     1 <0>        -0.7644
     10 N1          3.6263    1.7680   -0.0236 N.am      1 <0>        -0.7055
     11 C6          2.4702    1.0753   -0.0163 C.2       1 <0>         0.5623
     12 O3          2.4899   -0.1403   -0.0235 O.2       1 <0>        -0.5438
     13 C7          1.1796    1.7929    0.0004 C.ar      1 <0>        -0.1281
     14 C8          1.1593    3.1941    0.0082 C.ar      1 <0>        -0.0664
     15 C9         -0.0265    3.8685    0.0236 C.ar      1 <0>        -0.1211
     16 C10        -1.2281    3.1684    0.0309 C.ar      1 <0>         0.0527
     17 C11        -1.2263    1.7616    0.0174 C.ar      1 <0>         0.0311
     18 C12        -0.0126    1.0758    0.0080 C.ar      1 <0>        -0.0001
     19 N2         -2.5254    1.3640    0.0327 N.2       1 <0>        -0.4906
     20 C13        -3.3003    2.4085    0.0459 C.2       1 <0>         0.2653
     21 N3         -2.5532    3.5460    0.0455 N.pl3     1 <0>        -0.6140
     22 H2         -2.8210    4.6129    0.0542 H         1 <0>         0.4498
     23 H3          7.1018    4.1383   -5.1048 H         1 <0>         0.0983
     24 H4          5.3892    3.9696   -4.5897 H         1 <0>         0.0733
     25 H5          6.3312    2.5161   -5.0660 H         1 <0>         0.0743
     26 H6          4.6683    2.7173   -2.1935 H         1 <0>         0.0794
     27 H7          5.6102    1.2638   -2.6697 H         1 <0>         0.0810
     28 H8          6.9597    1.4557   -0.5863 H         1 <0>         0.0980
     29 H9          6.0177    2.9091   -0.1100 H         1 <0>         0.0727
     30 H10         3.6086    2.8678   -0.0171 H         1 <0>         0.4053
     31 H11         2.0889    3.7439    0.0023 H         1 <0>         0.1338
     32 H12        -0.0321    4.9485    0.0299 H         1 <0>         0.1265
     33 H13         0.0021   -0.0041    0.0020 H         1 <0>         0.1424
     34 H14        -4.3799    2.3776    0.0559 H         1 <0>         0.2143
@<TRIPOS>BOND
     1    1    2 1
     2    1   23 1
     3    1   24 1
     4    1   25 1
     5    2    3 1
     6    3    4 1
     7    3   26 1
     8    3   27 1
     9    4    5 1
    10    4   28 1
    11    4   29 1
    12    5    6 1
    13    5    7 1
    14    5   10 1
    15    7    8 2
    16    7    9 1
    17   10   11 am
    18   10   30 1
    19   11   12 2
    20   11   13 1
    21   13   18 ar
    22   13   14 ar
    23   14   15 ar
    24   14   31 1
    25   15   16 ar
    26   15   32 1
    27   16   21 1
    28   16   17 ar
    29   17   18 ar
    30   17   19 1
    31   18   33 1
    32   19   20 2
    33   20   21 1
    34   20   34 1
    35   21   22 1
@<TRIPOS>MOLECULE
ZINC33520164
   44    45     0     0     0
SMALL
USER_CHARGES
(2S)-2-[[(6R)-2-acetamido-6-methyl-4,5,6,7-tetrahydrobenzothiophene-3-carbonyl]amino]butanoic acid
@<TRIPOS>ATOM
      1 C1         -2.1034    0.8008    2.0209 C.3       1 <0>        -0.1425
      2 C2         -1.7944    2.1902    1.4595 C.3       1 <0>        -0.1135
      3 C3         -1.2947    2.0587    0.0194 C.3       1 <0>         0.1033
      4 H1         -2.0025    1.4809   -0.5932 H         1 <0>         0.0853
      5 C4         -1.1073    3.4310   -0.5745 C.2       1 <0>         0.4636
      6 O1         -0.0176    3.7762   -0.9659 O.co2     1 <0>        -0.6350
      7 O2         -2.1510    4.2698   -0.6687 O.co2     1 <0>        -0.7558
      8 N1         -0.0162    1.3436    0.0094 N.am      1 <0>        -0.7013
      9 C5          0.0021   -0.0041    0.0020 C.2       1 <0>         0.5703
     10 O3         -1.0436   -0.6269    0.0087 O.2       1 <0>        -0.5504
     11 C6          1.2816   -0.7198   -0.0140 C.2       1 <0>        -0.2155
     12 C7          1.9537   -1.0894    1.2200 C.2       1 <0>        -0.0571
     13 C8          3.1219   -1.7493    1.0634 C.2       1 <0>        -0.2216
     14 S1          3.3412   -1.8713   -0.6891 S.3       1 <0>         0.1993
     15 C9          1.8985   -1.0643   -1.2084 C.2       1 <0>         0.0819
     16 N2          1.4655   -0.8215   -2.5031 N.am      1 <0>        -0.6327
     17 C10         2.2063   -1.2354   -3.5502 C.2       1 <0>         0.5087
     18 O4          3.2517   -1.8201   -3.3600 O.2       1 <0>        -0.5179
     19 C11         1.7357   -0.9715   -4.9573 C.3       1 <0>        -0.1720
     20 C12         4.0262   -2.2540    2.1451 C.3       1 <0>        -0.0248
     21 C13         3.6147   -1.5914    3.4679 C.3       1 <0>        -0.0866
     22 H2          3.9133   -0.5327    3.4692 H         1 <0>         0.0765
     23 C14         2.0951   -1.7010    3.6228 C.3       1 <0>        -0.1108
     24 C15         1.4018   -0.7898    2.6083 C.3       1 <0>        -0.0649
     25 C16         4.3046   -2.3022    4.6340 C.3       1 <0>        -0.1473
     26 H3         -2.4627    0.8953    3.0563 H         1 <0>         0.0371
     27 H4         -1.1906    0.1872    2.0041 H         1 <0>         0.0547
     28 H5         -2.8791    0.3211    1.4059 H         1 <0>         0.0551
     29 H6         -2.7072    2.8038    1.4763 H         1 <0>         0.0769
     30 H7         -1.0187    2.6700    2.0744 H         1 <0>         0.0543
     31 H8          0.9288    1.9065    0.0079 H         1 <0>         0.4249
     32 H9          0.5174   -0.2911   -2.6756 H         1 <0>         0.4509
     33 H10         2.4664   -1.3799   -5.6709 H         1 <0>         0.1002
     34 H11         1.6371    0.1129   -5.1136 H         1 <0>         0.0987
     35 H12         0.7601   -1.4548   -5.1144 H         1 <0>         0.0955
     36 H13         3.9283   -3.3467    2.2247 H         1 <0>         0.0782
     37 H14         5.0676   -1.9959    1.9025 H         1 <0>         0.0767
     38 H15         1.7829   -2.7414    3.4491 H         1 <0>         0.0652
     39 H16         1.8073   -1.3969    4.6400 H         1 <0>         0.0681
     40 H17         1.5954    0.2633    2.8604 H         1 <0>         0.0780
     41 H18         0.3178   -0.9763    2.6201 H         1 <0>         0.0787
     42 H19         4.0086   -1.8261    5.5804 H         1 <0>         0.0568
     43 H20         5.3956   -2.2308    4.5131 H         1 <0>         0.0557
     44 H21         4.0056   -3.3607    4.6467 H         1 <0>         0.0551
@<TRIPOS>BOND
     1    1    2 1
     2    1   26 1
     3    1   27 1
     4    1   28 1
     5    2    3 1
     6    2   29 1
     7    2   30 1
     8    3    4 1
     9    3    5 1
    10    3    8 1
    11    5    6 2
    12    5    7 1
    13    8    9 am
    14    8   31 1
    15    9   10 2
    16    9   11 1
    17   11   15 2
    18   11   12 1
    19   12   24 1
    20   12   13 2
    21   13   14 1
    22   13   20 1
    23   14   15 1
    24   15   16 1
    25   16   17 am
    26   16   32 1
    27   17   18 2
    28   17   19 1
    29   19   33 1
    30   19   34 1
    31   19   35 1
    32   20   21 1
    33   20   36 1
    34   20   37 1
    35   21   22 1
    36   21   23 1
    37   21   25 1
    38   23   24 1
    39   23   38 1
    40   23   39 1
    41   24   40 1
    42   24   41 1
    43   25   42 1
    44   25   43 1
    45   25   44 1
@<TRIPOS>MOLECULE
ZINC40519795
   39    39     0     0     0
SMALL
USER_CHARGES

@<TRIPOS>ATOM
      1 C1          2.6282   -0.8293    1.1228 C.3       1 <0>        -0.1115
      2 C2          1.2688   -1.1130    0.5375 C.ar      1 <0>        -0.0699
      3 C3          1.1608   -1.6611   -0.7256 C.ar      1 <0>        -0.0930
      4 C4         -0.0869   -1.9218   -1.2636 C.ar      1 <0>        -0.0834
      5 C5         -1.2296   -1.6340   -0.5385 C.ar      1 <0>        -0.0937
      6 C6         -1.1274   -1.0854    0.7249 C.ar      1 <0>        -0.0660
      7 C7          0.1238   -0.8289    1.2699 C.ar      1 <0>         0.1823
      8 N1          0.2305   -0.2787    2.5526 N.am      1 <0>        -0.7068
      9 C8          0.0197   -1.0510    3.6369 C.2       1 <0>         0.7085
     10 O1         -0.1705   -2.2447    3.5053 O.2       1 <0>        -0.5754
     11 N2          0.0200   -0.5002    4.8669 N.am      1 <0>        -0.7087
     12 C9         -0.2091   -1.3398    6.0455 C.3       1 <0>         0.1012
     13 H1         -0.9218   -2.1265    5.7981 H         1 <0>         0.0844
     14 C10        -0.7702   -0.4820    7.1814 C.3       1 <0>        -0.0939
     15 C11        -2.1505    0.0471    6.7870 C.3       1 <0>        -0.0730
     16 S1         -2.8157    1.0641    8.1337 S.3       1 <0>        -0.2746
     17 C12        -4.4327    1.6069    7.5162 C.3       1 <0>        -0.1205
     18 C13         1.0933   -1.9605    6.4809 C.2       1 <0>         0.4927
     19 O2          2.1440   -1.3743    6.2835 O.co2     1 <0>        -0.6885
     20 O3          1.0963   -3.0488    7.0304 O.co2     1 <0>        -0.6911
     21 C14        -2.3724   -0.7713    1.5137 C.3       1 <0>        -0.1092
     22 Br1        -0.2309   -2.6723   -2.9933 Br        1 <0>        -0.0582
     23 H2          2.9795   -1.7058    1.6673 H         1 <0>         0.0793
     24 H3          3.3278   -0.5956    0.3202 H         1 <0>         0.0673
     25 H4          2.5606    0.0187    1.8042 H         1 <0>         0.0701
     26 H5          2.0511   -1.8861   -1.2940 H         1 <0>         0.1339
     27 H6         -2.2024   -1.8381   -0.9609 H         1 <0>         0.1327
     28 H7          0.4560    0.6585    2.6612 H         1 <0>         0.4013
     29 H8          0.1718    0.4520    4.9719 H         1 <0>         0.3890
     30 H9         -0.8572   -1.0865    8.0842 H         1 <0>         0.0878
     31 H10        -0.0995    0.3565    7.3688 H         1 <0>         0.0757
     32 H11        -2.0635    0.6516    5.8841 H         1 <0>         0.0778
     33 H12        -2.8211   -0.7914    6.5995 H         1 <0>         0.0797
     34 H13        -4.2978    2.1786    6.5981 H         1 <0>         0.0726
     35 H14        -5.0554    0.7356    7.3135 H         1 <0>         0.0736
     36 H15        -4.9166    2.2327    8.2661 H         1 <0>         0.0977
     37 H16        -2.6208   -1.6184    2.1531 H         1 <0>         0.0776
     38 H17        -2.1991    0.1108    2.1302 H         1 <0>         0.0668
     39 H18        -3.1979   -0.5791    0.8284 H         1 <0>         0.0655
@<TRIPOS>BOND
     1    1    2 1
     2    1   23 1
     3    1   24 1
     4    1   25 1
     5    2    7 ar
     6    2    3 ar
     7    3    4 ar
     8    3   26 1
     9    4    5 ar
    10    4   22 1
    11    5    6 ar
    12    5   27 1
    13    6    7 ar
    14    6   21 1
    15    7    8 1
    16    8    9 am
    17    8   28 1
    18    9   10 2
    19    9   11 am
    20   11   12 1
    21   11   29 1
    22   12   13 1
    23   12   14 1
    24   12   18 1
    25   14   15 1
    26   14   30 1
    27   14   31 1
    28   15   16 1
    29   15   32 1
    30   15   33 1
    31   16   17 1
    32   17   34 1
    33   17   35 1
    34   17   36 1
    35   18   19 2
    36   18   20 1
    37   21   37 1
    38   21   38 1
    39   21   39 1
@<TRIPOS>MOLECULE
ZINC49561131
   41    42     0     0     0
SMALL
USER_CHARGES

@<TRIPOS>ATOM
      1 C1         -0.0187    1.5258    0.0104 C.3       1 <0>        -0.1466
      2 C2          0.0021   -0.0041    0.0020 C.3       1 <0>        -0.1342
      3 C3         -1.4333   -0.5336    0.0129 C.3       1 <0>        -0.0954
      4 C4         -1.4126   -2.0635    0.0045 C.3       1 <0>         0.1157
      5 C5         -0.6964   -2.5569   -1.2543 C.3       1 <0>        -0.1421
      6 C6         -0.6837   -2.5627    1.2254 C.2       1 <0>         0.5031
      7 O1         -1.2590   -3.2760    2.0296 O.co2     1 <0>        -0.6737
      8 O2          0.4813   -2.2533    1.4088 O.co2     1 <0>        -0.6916
      9 N1         -2.7870   -2.5706    0.0149 N.am      1 <0>        -0.7127
     10 C7         -3.0152   -3.8988    0.0099 C.2       1 <0>         0.7024
     11 O3         -2.0805   -4.6763   -0.0032 O.2       1 <0>        -0.4992
     12 N2         -4.2797   -4.3654    0.0195 N.am      1 <0>        -0.6359
     13 C8         -4.5151   -5.7353    0.0144 C.2       1 <0>         0.3276
     14 N3         -3.6385   -6.7150    0.0065 N.2       1 <0>        -0.5224
     15 C9         -4.0110   -7.9921    0.0022 C.2       1 <0>         0.1097
     16 C10        -5.3533   -8.1952    0.0060 C.2       1 <0>        -0.2494
     17 S1         -5.9936   -6.5442    0.0241 S.3       1 <0>         0.0749
     18 C11        -6.0780   -9.4982    0.0006 C.3       1 <0>        -0.0205
     19 C12        -5.0778  -10.6019   -0.3797 C.3       1 <0>        -0.1122
     20 C13        -3.8045  -10.4225    0.4517 C.3       1 <0>        -0.1183
     21 C14        -3.0495   -9.1722   -0.0045 C.3       1 <0>        -0.0418
     22 H1          1.0039    1.9031    0.0027 H         1 <0>         0.0484
     23 H2         -0.5459    1.8868   -0.8726 H         1 <0>         0.0410
     24 H3         -0.5289    1.8773    0.9072 H         1 <0>         0.0467
     25 H4          0.5123   -0.3556   -0.8948 H         1 <0>         0.0573
     26 H5          0.5293   -0.3651    0.8851 H         1 <0>         0.1095
     27 H6         -1.9435   -0.1821    0.9097 H         1 <0>         0.0552
     28 H7         -1.9605   -0.1726   -0.8702 H         1 <0>         0.0478
     29 H8          0.3262   -2.1796   -1.2621 H         1 <0>         0.0675
     30 H9         -0.6816   -3.6468   -1.2603 H         1 <0>         0.0683
     31 H10        -1.2236   -2.1958   -2.1374 H         1 <0>         0.0340
     32 H11        -3.5327   -1.9503    0.0253 H         1 <0>         0.3809
     33 H12        -5.0254   -3.7451    0.0299 H         1 <0>         0.4126
     34 H13        -6.4852   -9.6966    0.9920 H         1 <0>         0.0759
     35 H14        -6.8862   -9.4665   -0.7300 H         1 <0>         0.0743
     36 H15        -5.5151  -11.5785   -0.1720 H         1 <0>         0.0715
     37 H16        -4.8357  -10.5260   -1.4397 H         1 <0>         0.0675
     38 H17        -4.0712  -10.3196    1.5036 H         1 <0>         0.0665
     39 H18        -3.1652  -11.2964    0.3268 H         1 <0>         0.0715
     40 H19        -2.6654   -9.3251   -1.0131 H         1 <0>         0.0805
     41 H20        -2.2230   -8.9745    0.6780 H         1 <0>         0.0855
@<TRIPOS>BOND
     1    1    2 1
     2    1   22 1
     3    1   23 1
     4    1   24 1
     5    2    3 1
     6    2   25 1
     7    2   26 1
     8    3    4 1
     9    3   27 1
    10    3   28 1
    11    4    5 1
    12    4    6 1
    13    4    9 1
    14    5   29 1
    15    5   30 1
    16    5   31 1
    17    6    7 2
    18    6    8 1
    19    9   10 am
    20    9   32 1
    21   10   11 2
    22   10   12 am
    23   12   13 1
    24   12   33 1
    25   13   17 1
    26   13   14 2
    27   14   15 1
    28   15   21 1
    29   15   16 2
    30   16   17 1
    31   16   18 1
    32   18   19 1
    33   18   34 1
    34   18   35 1
    35   19   20 1
    36   19   36 1
    37   19   37 1
    38   20   21 1
    39   20   38 1
    40   20   39 1
    41   21   40 1
    42   21   41 1
@<TRIPOS>MOLECULE
ZINC62872012
   44    44     0     0     0
SMALL
USER_CHARGES

@<TRIPOS>ATOM
      1 C1         -0.0187    1.5258    0.0104 C.3       1 <0>        -0.1434
      2 C2          0.0021   -0.0041    0.0020 C.3       1 <0>        -0.1414
      3 C3          0.7182   -0.4975   -1.2568 C.3       1 <0>        -0.0791
      4 C4          0.7390   -2.0273   -1.2652 C.3       1 <0>        -0.1395
      5 C5          1.4516   -2.5216   -2.5261 C.3       1 <0>        -0.0869
      6 C6          0.7297   -1.9867   -3.7650 C.3       1 <0>        -0.1396
      7 C7         -0.7073   -2.5171   -3.7825 C.3       1 <0>         0.1062
      8 N1         -1.3549   -2.1704   -2.5100 N.am      1 <0>        -0.6013
      9 C8         -0.6980   -2.5582   -1.2543 C.3       1 <0>         0.1359
     10 C9         -2.5290   -1.5088   -2.4949 C.2       1 <0>         0.5163
     11 O1         -3.0535   -1.2284   -1.4379 O.2       1 <0>        -0.5431
     12 C10        -3.1901   -1.1175   -3.7914 C.3       1 <0>        -0.1225
     13 C11        -4.4995   -0.3837   -3.4950 C.3       1 <0>        -0.0838
     14 S1         -5.2953    0.0874   -5.0556 S.3       1 <0>        -0.1881
     15 C12        -6.8126    0.9351   -4.5361 C.3       1 <0>        -0.1312
     16 C13        -7.5788    1.3846   -5.7534 C.2       1 <0>         0.5352
     17 O2         -7.1442    1.1555   -6.8623 O.2       1 <0>        -0.5195
     18 N2         -8.7471    2.0411   -5.6099 N.am      1 <0>        -0.8524
     19 C14         1.4691   -2.5272   -0.0453 C.2       1 <0>         0.5063
     20 O3          1.0605   -2.2446    1.0681 O.co2     1 <0>        -0.6845
     21 O4          2.4684   -3.2141   -0.1718 O.co2     1 <0>        -0.6943
     22 H1          1.0039    1.9031    0.0027 H         1 <0>         0.0434
     23 H2         -0.5459    1.8868   -0.8726 H         1 <0>         0.0374
     24 H3         -0.5289    1.8773    0.9072 H         1 <0>         0.0442
     25 H4          0.5293   -0.3651    0.8851 H         1 <0>         0.1026
     26 H5         -1.0205   -0.3814    0.0098 H         1 <0>         0.0603
     27 H6          0.1910   -0.1364   -2.1398 H         1 <0>         0.0426
     28 H7          1.7408   -0.1202   -1.2645 H         1 <0>         0.0464
     29 H8          2.4818   -2.1655   -2.5242 H         1 <0>         0.0630
     30 H9          1.4443   -3.6114   -2.5438 H         1 <0>         0.0595
     31 H10         0.7150   -0.8972   -3.7355 H         1 <0>         0.0660
     32 H11         1.2514   -2.3198   -4.6622 H         1 <0>         0.0674
     33 H12        -1.2551   -2.0614   -4.6073 H         1 <0>         0.0783
     34 H13        -0.6956   -3.6004   -3.9032 H         1 <0>         0.0679
     35 H14        -0.6854   -3.6448   -1.1689 H         1 <0>         0.0569
     36 H15        -1.2395   -2.1296   -0.4111 H         1 <0>         0.1007
     37 H16        -2.5258   -0.4621   -4.3547 H         1 <0>         0.1008
     38 H17        -3.3998   -2.0126   -4.3770 H         1 <0>         0.1001
     39 H18        -5.1639   -1.0390   -2.9317 H         1 <0>         0.0896
     40 H19        -4.2899    0.5114   -2.9094 H         1 <0>         0.0902
     41 H20        -7.4283    0.2521   -3.9509 H         1 <0>         0.1123
     42 H21        -6.5543    1.8025   -3.9286 H         1 <0>         0.1126
     43 H22        -9.0947    2.2243   -4.7231 H         1 <0>         0.4030
     44 H23        -9.2403    2.3304   -6.3935 H         1 <0>         0.4056
@<TRIPOS>BOND
     1    1    2 1
     2    1   22 1
     3    1   23 1
     4    1   24 1
     5    2    3 1
     6    2   25 1
     7    2   26 1
     8    3    4 1
     9    3   27 1
    10    3   28 1
    11    4    9 1
    12    4    5 1
    13    4   19 1
    14    5    6 1
    15    5   29 1
    16    5   30 1
    17    6    7 1
    18    6   31 1
    19    6   32 1
    20    7    8 1
    21    7   33 1
    22    7   34 1
    23    8    9 1
    24    8   10 am
    25    9   35 1
    26    9   36 1
    27   10   11 2
    28   10   12 1
    29   12   13 1
    30   12   37 1
    31   12   38 1
    32   13   14 1
    33   13   39 1
    34   13   40 1
    35   14   15 1
    36   15   16 1
    37   15   41 1
    38   15   42 1
    39   16   17 2
    40   16   18 am
    41   18   43 1
    42   18   44 1
    43   19   20 2
    44   19   21 1
@<TRIPOS>MOLECULE
ZINC35383569
   40    40     0     0     0
SMALL
USER_CHARGES

@<TRIPOS>ATOM
      1 C1         -0.0187    1.5258    0.0104 C.3       1 <0>        -0.1526
      2 C2          0.0021   -0.0041    0.0020 C.3       1 <0>        -0.1204
      3 C3          0.7182   -0.4975   -1.2568 C.3       1 <0>        -0.0385
      4 C4          0.7386   -2.0043   -1.2651 C.2       1 <0>        -0.1899
      5 C5         -0.1788   -2.8469   -1.8006 C.2       1 <0>        -0.1497
      6 C6          0.0228   -4.2029   -1.7039 C.2       1 <0>        -0.0611
      7 C7          1.1801   -4.5945   -1.0481 C.2       1 <0>        -0.2516
      8 S1          1.9070   -3.0242   -0.6194 S.3       1 <0>         0.2100
      9 C8          1.6785   -5.9470   -0.7818 C.2       1 <0>         0.6059
     10 O1          1.0433   -6.9146   -1.1577 O.2       1 <0>        -0.5300
     11 N1          2.8403   -6.1189   -0.1205 N.am      1 <0>        -0.7092
     12 C9          3.3385   -7.4706    0.1457 C.3       1 <0>         0.1008
     13 C10         4.6445   -7.3866    0.8928 C.2       1 <0>         0.4971
     14 O2          5.1130   -6.3041    1.1751 O.2       1 <0>        -0.5589
     15 N2          5.2919   -8.5143    1.2473 N.am      1 <0>        -0.6897
     16 C11         6.5615   -8.4325    1.9736 C.3       1 <0>         0.0500
     17 C12         7.0740   -9.8230    2.2475 C.2       1 <0>         0.4901
     18 O3          6.4377  -10.7924    1.8709 O.co2     1 <0>        -0.6903
     19 O4          8.1249   -9.9785    2.8457 O.co2     1 <0>        -0.6867
     20 C13        -1.4030   -2.3040   -2.4919 C.3       1 <0>        -0.0651
     21 C14        -1.0662   -1.9856   -3.9500 C.3       1 <0>        -0.1471
     22 H1          1.0039    1.9031    0.0027 H         1 <0>         0.0562
     23 H2         -0.5459    1.8868   -0.8726 H         1 <0>         0.0551
     24 H3         -0.5289    1.8773    0.9072 H         1 <0>         0.0573
     25 H4          0.5293   -0.3651    0.8851 H         1 <0>         0.0665
     26 H5         -1.0205   -0.3814    0.0098 H         1 <0>         0.0663
     27 H6          0.1910   -0.1364   -2.1398 H         1 <0>         0.0867
     28 H7          1.7408   -0.1202   -1.2645 H         1 <0>         0.0798
     29 H8         -0.6759   -4.9180   -2.1123 H         1 <0>         0.1476
     30 H9          3.3465   -5.3477    0.1791 H         1 <0>         0.4107
     31 H10         2.6101   -8.0144    0.7473 H         1 <0>         0.1025
     32 H11         3.4928   -7.9934   -0.7982 H         1 <0>         0.1025
     33 H12         4.9171   -9.3800    1.0215 H         1 <0>         0.4118
     34 H13         7.2899   -7.8888    1.3721 H         1 <0>         0.0684
     35 H14         6.4071   -7.9097    2.9175 H         1 <0>         0.0684
     36 H15        -2.1996   -3.0472   -2.4569 H         1 <0>         0.0700
     37 H16        -1.7316   -1.3950   -1.9880 H         1 <0>         0.0704
     38 H17        -1.9516   -1.5930   -4.4500 H         1 <0>         0.0566
     39 H18        -0.2696   -1.2425   -3.9850 H         1 <0>         0.0541
     40 H19        -0.7375   -2.8946   -4.4538 H         1 <0>         0.0561
@<TRIPOS>BOND
     1    1    2 1
     2    1   22 1
     3    1   23 1
     4    1   24 1
     5    2    3 1
     6    2   25 1
     7    2   26 1
     8    3    4 1
     9    3   27 1
    10    3   28 1
    11    4    8 1
    12    4    5 2
    13    5    6 1
    14    5   20 1
    15    6    7 2
    16    6   29 1
    17    7    8 1
    18    7    9 1
    19    9   10 2
    20    9   11 am
    21   11   12 1
    22   11   30 1
    23   12   13 1
    24   12   31 1
    25   12   32 1
    26   13   14 2
    27   13   15 am
    28   15   16 1
    29   15   33 1
    30   16   17 1
    31   16   34 1
    32   16   35 1
    33   17   18 2
    34   17   19 1
    35   20   21 1
    36   20   36 1
    37   20   37 1
    38   21   38 1
    39   21   39 1
    40   21   40 1
@<TRIPOS>MOLECULE
ZINC40559503
   33    33     0     0     0
SMALL
USER_CHARGES

@<TRIPOS>ATOM
      1 C1         -0.0503    1.8549    0.0209 C.3       1 <0>        -0.1208
      2 S1         -0.0125    0.0413    0.0131 S.3       1 <0>        -0.2733
      3 C2         -1.7631   -0.4341    0.0242 C.3       1 <0>        -0.0746
      4 C3         -1.8773   -1.9598    0.0187 C.3       1 <0>        -0.0945
      5 C4         -3.3537   -2.3608    0.0280 C.3       1 <0>         0.0988
      6 H1         -3.8526   -1.8907    0.8755 H         1 <0>         0.0873
      7 C5         -3.4667   -3.8589    0.1465 C.2       1 <0>         0.4924
      8 O1         -3.5287   -4.3804    1.2468 O.co2     1 <0>        -0.6895
      9 O2         -3.4961   -4.5493   -0.8580 O.co2     1 <0>        -0.6859
     10 N1         -3.9873   -1.9203   -1.2173 N.am      1 <0>        -0.7014
     11 C6         -5.3153   -1.6936   -1.2542 C.2       1 <0>         0.7052
     12 O3         -5.9876   -1.8547   -0.2540 O.2       1 <0>        -0.5703
     13 N2         -5.8982   -1.2883   -2.3999 N.am      1 <0>        -0.6875
     14 C7         -7.2902   -1.1434   -2.4646 C.ar      1 <0>         0.2039
     15 C8         -7.9957   -0.7039   -1.3526 C.ar      1 <0>        -0.0892
     16 C9         -9.3679   -0.5613   -1.4184 C.ar      1 <0>        -0.1155
     17 C10       -10.0406   -0.8567   -2.5924 C.ar      1 <0>         0.0765
     18 C11        -9.3395   -1.2951   -3.7028 C.ar      1 <0>        -0.1062
     19 C12        -7.9656   -1.4338   -3.6430 C.ar      1 <0>        -0.1050
     20 Br1        -7.0072   -2.0253   -5.1621 Br        1 <0>        -0.0332
     21 F1        -11.3830   -0.7172   -2.6541 F         1 <0>        -0.1379
     22 H2          0.9696    2.2396    0.0150 H         1 <0>         0.0980
     23 H3         -0.5782    2.2112   -0.8637 H         1 <0>         0.0728
     24 H4         -0.5649    2.2038    0.9162 H         1 <0>         0.0737
     25 H5         -2.2418   -0.0371    0.9194 H         1 <0>         0.0805
     26 H6         -2.2550   -0.0297   -0.8605 H         1 <0>         0.0776
     27 H7         -1.3986   -2.3567   -0.8765 H         1 <0>         0.0767
     28 H8         -1.3854   -2.3641    0.9034 H         1 <0>         0.0896
     29 H9         -3.4509   -1.7917   -2.0152 H         1 <0>         0.3918
     30 H10        -5.3539   -1.0969   -3.1797 H         1 <0>         0.4073
     31 H11        -7.4720   -0.4741   -0.4366 H         1 <0>         0.1627
     32 H12        -9.9169   -0.2194   -0.5535 H         1 <0>         0.1441
     33 H13        -9.8659   -1.5250   -4.6173 H         1 <0>         0.1460
@<TRIPOS>BOND
     1    1    2 1
     2    1   22 1
     3    1   23 1
     4    1   24 1
     5    2    3 1
     6    3    4 1
     7    3   25 1
     8    3   26 1
     9    4    5 1
    10    4   27 1
    11    4   28 1
    12    5    6 1
    13    5    7 1
    14    5   10 1
    15    7    8 2
    16    7    9 1
    17   10   11 am
    18   10   29 1
    19   11   12 2
    20   11   13 am
    21   13   14 1
    22   13   30 1
    23   14   19 ar
    24   14   15 ar
    25   15   16 ar
    26   15   31 1
    27   16   17 ar
    28   16   32 1
    29   17   18 ar
    30   17   21 1
    31   18   19 ar
    32   18   33 1
    33   19   20 1
@<TRIPOS>MOLECULE
ZINC46870310
   37    38     0     0     0
SMALL
USER_CHARGES

@<TRIPOS>ATOM
      1 C1         -0.0169    1.3937    0.0097 C.ar      1 <0>        -0.0128
      2 C2          1.1662    2.0965    0.0022 C.ar      1 <0>        -0.1921
      3 C3          2.3811    1.4169   -0.0131 C.ar      1 <0>         0.3087
      4 C4          2.4034    0.0249   -0.0208 C.ar      1 <0>        -0.2750
      5 C5          1.2237   -0.6836   -0.0138 C.ar      1 <0>        -0.0225
      6 C6          0.0021   -0.0041    0.0020 C.ar      1 <0>        -0.2552
      7 C7         -1.2644   -0.7605    0.0105 C.2       1 <0>         0.5738
      8 O1         -2.3263   -0.1682    0.0243 O.2       1 <0>        -0.5657
      9 N1         -1.2445   -2.1081    0.0031 N.am      1 <0>        -0.7336
     10 C8         -2.5022   -2.8593    0.0116 C.3       1 <0>         0.1223
     11 C9         -2.2005   -4.3592    0.0005 C.3       1 <0>         0.0635
     12 O2         -1.5363   -4.7204    1.2131 O.3       1 <0>        -0.5689
     13 N2          3.5749    2.1299   -0.0211 N.2       1 <0>        -1.0778
     14 S1          5.0210    1.3232   -0.0392 S.o2      1 <0>         2.6043
     15 O3          5.1195    0.6381    1.2018 O.2       1 <0>        -1.0184
     16 O4          5.0952    0.6506   -1.2888 O.2       1 <0>        -1.0181
     17 C10         6.2959    2.5394   -0.0455 C.ar      1 <0>        -0.6023
     18 C11         6.7799    3.0263   -1.2456 C.ar      1 <0>        -0.0041
     19 C12         7.7800    3.9803   -1.2531 C.ar      1 <0>        -0.1500
     20 C13         8.2976    4.4497   -0.0583 C.ar      1 <0>         0.1041
     21 C14         7.8119    3.9618    1.1452 C.ar      1 <0>         0.0426
     22 C15         6.8071    3.0099    1.1493 C.ar      1 <0>        -0.0272
     23 F1          8.3160    4.4181    2.3126 F         1 <0>        -0.1284
     24 F2          9.2754    5.3819   -0.0648 F         1 <0>        -0.1270
     25 H1         -0.9590    1.9215    0.0260 H         1 <0>         0.1199
     26 H2          1.1522    3.1764    0.0078 H         1 <0>         0.1204
     27 H3          3.3474   -0.4995   -0.0326 H         1 <0>         0.1030
     28 H4          1.2416   -1.7634   -0.0204 H         1 <0>         0.1054
     29 H5         -0.3974   -2.5806   -0.0078 H         1 <0>         0.4011
     30 H6         -3.0688   -2.6092    0.9086 H         1 <0>         0.0708
     31 H7         -3.0864   -2.5997   -0.8713 H         1 <0>         0.0780
     32 H8         -3.1333   -4.9169   -0.0828 H         1 <0>         0.0598
     33 H9         -1.5594   -4.5946   -0.8490 H         1 <0>         0.0529
     34 H10        -1.3138   -5.6594    1.2751 H         1 <0>         0.3794
     35 H11         6.3764    2.6605   -2.1782 H         1 <0>         0.1561
     36 H12         8.1577    4.3593   -2.1912 H         1 <0>         0.1520
     37 H13         6.4253    2.6318    2.0862 H         1 <0>         0.1609
@<TRIPOS>BOND
     1    1    6 ar
     2    1    2 ar
     3    1   25 1
     4    2    3 ar
     5    2   26 1
     6    3    4 ar
     7    3   13 1
     8    4    5 ar
     9    4   27 1
    10    5    6 ar
    11    5   28 1
    12    6    7 1
    13    7    8 2
    14    7    9 am
    15    9   10 1
    16    9   29 1
    17   10   11 1
    18   10   30 1
    19   10   31 1
    20   11   12 1
    21   11   32 1
    22   11   33 1
    23   12   34 1
    24   13   14 1
    25   14   15 2
    26   14   16 2
    27   14   17 1
    28   17   22 ar
    29   17   18 ar
    30   18   19 ar
    31   18   35 1
    32   19   20 ar
    33   19   36 1
    34   20   21 ar
    35   20   24 1
    36   21   22 ar
    37   21   23 1
    38   22   37 1
@<TRIPOS>MOLECULE
ZINC52763993
   45    45     0     0     0
SMALL
USER_CHARGES

@<TRIPOS>ATOM
      1 C1         -0.4383    1.0534    0.4520 C.3       1 <0>        -0.1465
      2 C2         -0.3275   -0.4685    0.3410 C.3       1 <0>        -0.1268
      3 C3          0.4200   -0.8331   -0.9432 C.3       1 <0>        -0.0795
      4 H1         -0.0760   -0.3701   -1.7962 H         1 <0>         0.0638
      5 C4          1.8615   -0.3278   -0.8553 C.3       1 <0>        -0.1416
      6 C5          0.4223   -2.3531   -1.1179 C.3       1 <0>         0.0968
      7 H2          0.9182   -2.8162   -0.2648 H         1 <0>         0.0792
      8 C6         -0.9975   -2.8509   -1.2045 C.2       1 <0>         0.4915
      9 O1         -1.4306   -3.2773   -2.2614 O.co2     1 <0>        -0.6894
     10 O2         -1.7131   -2.8272   -0.2176 O.co2     1 <0>        -0.6932
     11 N1          1.1380   -2.7023   -2.3475 N.am      1 <0>        -0.7072
     12 C7          1.7082   -3.9170   -2.4736 C.2       1 <0>         0.7276
     13 O3          1.6286   -4.7230   -1.5668 O.2       1 <0>        -0.5906
     14 N2          2.3667   -4.2382   -3.6048 N.am      1 <0>        -0.6387
     15 C8          2.4564   -3.4000   -4.8143 C.3       1 <0>         0.1004
     16 C9          2.7367   -4.3960   -5.9671 C.3       1 <0>        -0.1311
     17 C10         3.6746   -5.4191   -5.2737 C.3       1 <0>        -0.1266
     18 C11         3.1198   -5.4797   -3.8348 C.3       1 <0>         0.1602
     19 H3          2.4580   -6.3395   -3.7305 H         1 <0>         0.0727
     20 C12         4.2723   -5.5822   -2.8337 C.3       1 <0>        -0.1276
     21 C13         4.9699   -6.9342   -2.9958 C.3       1 <0>        -0.1138
     22 C14         6.0394   -7.0894   -1.9127 C.3       1 <0>         0.0753
     23 O4          6.6910   -8.3522   -2.0641 O.3       1 <0>        -0.5774
     24 H4          0.5604    1.4896    0.4766 H         1 <0>         0.0456
     25 H5         -0.9833    1.4418   -0.4084 H         1 <0>         0.0476
     26 H6         -0.9708    1.3132    1.3669 H         1 <0>         0.0479
     27 H7          0.2175   -0.8568    1.2014 H         1 <0>         0.0543
     28 H8         -1.3261   -0.9046    0.3164 H         1 <0>         0.1027
     29 H9          1.8598    0.7551   -0.7308 H         1 <0>         0.0509
     30 H10         2.3574   -0.7908   -0.0022 H         1 <0>         0.0501
     31 H11         2.3940   -0.5875   -1.7701 H         1 <0>         0.0464
     32 H12         1.2016   -2.0592   -3.0710 H         1 <0>         0.3844
     33 H13         1.5149   -2.8778   -4.9846 H         1 <0>         0.0737
     34 H14         3.2754   -2.6867   -4.7216 H         1 <0>         0.0599
     35 H15         1.8166   -4.8743   -6.3026 H         1 <0>         0.0767
     36 H16         3.2429   -3.9015   -6.7962 H         1 <0>         0.0798
     37 H17         3.6067   -6.3938   -5.7570 H         1 <0>         0.0796
     38 H18         4.7035   -5.0594   -5.2716 H         1 <0>         0.0748
     39 H19         4.9868   -4.7802   -3.0189 H         1 <0>         0.0610
     40 H20         3.8819   -5.4941   -1.8199 H         1 <0>         0.0808
     41 H21         4.2368   -7.7352   -2.9000 H         1 <0>         0.0708
     42 H22         5.4382   -6.9860   -3.9788 H         1 <0>         0.0679
     43 H23         6.7725   -6.2885   -2.0086 H         1 <0>         0.0430
     44 H24         5.5712   -7.0377   -0.9297 H         1 <0>         0.0476
     45 H25         7.3828   -8.5188   -1.4094 H         1 <0>         0.3769
@<TRIPOS>BOND
     1    1    2 1
     2    1   24 1
     3    1   25 1
     4    1   26 1
     5    2    3 1
     6    2   27 1
     7    2   28 1
     8    3    4 1
     9    3    5 1
    10    3    6 1
    11    5   29 1
    12    5   30 1
    13    5   31 1
    14    6    7 1
    15    6    8 1
    16    6   11 1
    17    8    9 2
    18    8   10 1
    19   11   12 am
    20   11   32 1
    21   12   13 2
    22   12   14 am
    23   14   18 1
    24   14   15 1
    25   15   16 1
    26   15   33 1
    27   15   34 1
    28   16   17 1
    29   16   35 1
    30   16   36 1
    31   17   18 1
    32   17   37 1
    33   17   38 1
    34   18   19 1
    35   18   20 1
    36   20   21 1
    37   20   39 1
    38   20   40 1
    39   21   22 1
    40   21   41 1
    41   21   42 1
    42   22   23 1
    43   22   43 1
    44   22   44 1
    45   23   45 1
@<TRIPOS>MOLECULE
ZINC62915421
   38    38     0     0     0
SMALL
USER_CHARGES

@<TRIPOS>ATOM
      1 C1         -0.0187    1.5258    0.0104 C.3       1 <0>        -0.1576
      2 C2          0.0021   -0.0041    0.0020 C.3       1 <0>        -0.0874
      3 C3          0.7182   -0.4975   -1.2568 C.3       1 <0>        -0.1413
      4 C4          2.2026   -0.0654   -1.2345 C.3       1 <0>        -0.1066
      5 C5          2.9199   -1.3257   -0.6889 C.3       1 <0>         0.0959
      6 N1          2.1688   -2.4402   -1.3114 N.am      1 <0>        -0.6118
      7 C6          0.7504   -2.0369   -1.2853 C.3       1 <0>         0.1164
      8 C7          2.6775   -3.5877   -1.8022 C.2       1 <0>         0.5329
      9 O1          1.9401   -4.4192   -2.2878 O.2       1 <0>        -0.5474
     10 C8          4.1627   -3.8377   -1.7476 C.3       1 <0>        -0.1182
     11 C9          4.4732   -5.2023   -2.3659 C.3       1 <0>        -0.0840
     12 S1          6.2609   -5.5031   -2.3001 S.3       1 <0>        -0.1873
     13 C10         6.4591   -7.1378   -3.0612 C.3       1 <0>        -0.1314
     14 C11         7.9183   -7.5141   -3.0702 C.2       1 <0>         0.5353
     15 O2          8.7434   -6.7544   -2.6087 O.2       1 <0>        -0.5193
     16 N2          8.3065   -8.6949   -3.5912 N.am      1 <0>        -0.8526
     17 C12         0.0343    0.0347   -2.4897 C.2       1 <0>         0.5076
     18 O3         -0.0652    1.2379   -2.6603 O.co2     1 <0>        -0.6847
     19 O4         -0.4195   -0.7378   -3.3166 O.co2     1 <0>        -0.6890
     20 H1          1.0039    1.9031    0.0027 H         1 <0>         0.0454
     21 H2         -0.5459    1.8868   -0.8726 H         1 <0>         0.0961
     22 H3         -0.5289    1.8773    0.9072 H         1 <0>         0.0301
     23 H4          0.5293   -0.3651    0.8851 H         1 <0>         0.0440
     24 H5         -1.0205   -0.3814    0.0098 H         1 <0>         0.0527
     25 H6          2.5506    0.1720   -2.2398 H         1 <0>         0.0689
     26 H7          2.3479    0.7820   -0.5644 H         1 <0>         0.0802
     27 H8          3.9631   -1.3414   -1.0044 H         1 <0>         0.0744
     28 H9          2.8449   -1.3709    0.3976 H         1 <0>         0.0703
     29 H10         0.2676   -2.4349   -0.3927 H         1 <0>         0.0509
     30 H11         0.2440   -2.4024   -2.1787 H         1 <0>         0.1020
     31 H12         4.6829   -3.0591   -2.3055 H         1 <0>         0.1016
     32 H13         4.4953   -3.8249   -0.7097 H         1 <0>         0.0998
     33 H14         3.9530   -5.9808   -1.8079 H         1 <0>         0.0896
     34 H15         4.1406   -5.2151   -3.4038 H         1 <0>         0.0912
     35 H16         5.8971   -7.8757   -2.4887 H         1 <0>         0.1121
     36 H17         6.0847   -7.1099   -4.0845 H         1 <0>         0.1129
     37 H18         7.6467   -9.3026   -3.9604 H         1 <0>         0.4029
     38 H19         9.2458   -8.9372   -3.5971 H         1 <0>         0.4055
@<TRIPOS>BOND
     1    1    2 1
     2    1   20 1
     3    1   21 1
     4    1   22 1
     5    2    3 1
     6    2   23 1
     7    2   24 1
     8    3    7 1
     9    3    4 1
    10    3   17 1
    11    4    5 1
    12    4   25 1
    13    4   26 1
    14    5    6 1
    15    5   27 1
    16    5   28 1
    17    6    7 1
    18    6    8 am
    19    7   29 1
    20    7   30 1
    21    8    9 2
    22    8   10 1
    23   10   11 1
    24   10   31 1
    25   10   32 1
    26   11   12 1
    27   11   33 1
    28   11   34 1
    29   12   13 1
    30   13   14 1
    31   13   35 1
    32   13   36 1
    33   14   15 2
    34   14   16 am
    35   16   37 1
    36   16   38 1
    37   17   18 2
    38   17   19 1
@<TRIPOS>MOLECULE
ZINC35736919
   31    31     0     0     0
SMALL
USER_CHARGES

@<TRIPOS>ATOM
      1 C1         -0.0187    1.5258    0.0104 C.3       1 <0>        -0.1611
      2 C2          0.0021   -0.0041    0.0020 C.3       1 <0>         0.2458
      3 H1          0.5123   -0.3556   -0.8948 H         1 <0>         0.1118
      4 C3         -1.4117   -0.5257    0.0127 C.2       1 <0>        -0.1519
      5 C4         -2.1573   -0.9923   -1.0187 C.2       1 <0>        -0.1458
      6 C5         -3.4466   -1.4250   -0.7719 C.2       1 <0>        -0.1549
      7 C6         -3.9274   -1.3700    0.4943 C.2       1 <0>        -0.1713
      8 S1         -2.5366   -0.6968    1.3885 S.3       1 <0>         0.0410
      9 N1          0.7106   -0.4894    1.1889 N.am      1 <0>        -0.7395
     10 C7          2.0538   -0.5998    1.1737 C.2       1 <0>         0.6967
     11 O1          2.6772   -0.2968    0.1753 O.2       1 <0>        -0.5308
     12 N2          2.7056   -1.0463    2.2656 N.am      1 <0>        -0.6937
     13 C8          4.0488   -1.1567    2.2504 C.2       1 <0>         0.5118
     14 O2          4.6706   -0.8544    1.2545 O.2       1 <0>        -0.4703
     15 C9          4.7776   -1.6559    3.4713 C.3       1 <0>        -0.1087
     16 C10         6.2815   -1.6855    3.1909 C.3       1 <0>        -0.1702
     17 C11         7.0103   -2.1847    4.4118 C.2       1 <0>         0.4921
     18 O3          6.3850   -2.4887    5.4133 O.co2     1 <0>        -0.7015
     19 O4          8.2254   -2.2846    4.3981 O.co2     1 <0>        -0.7001
     20 H2          1.0039    1.9031    0.0027 H         1 <0>         0.0739
     21 H3         -0.5459    1.8868   -0.8726 H         1 <0>         0.0711
     22 H4         -0.5289    1.8773    0.9072 H         1 <0>         0.0610
     23 H5         -1.7501   -1.0251   -2.0185 H         1 <0>         0.1364
     24 H6         -4.0619   -1.8010   -1.5759 H         1 <0>         0.1355
     25 H7         -4.8985   -1.6616    0.8663 H         1 <0>         0.1865
     26 H8          0.2131   -0.7312    1.9857 H         1 <0>         0.3971
     27 H9          2.2081   -1.2881    3.0624 H         1 <0>         0.4098
     28 H10         4.5776   -0.9906    4.3112 H         1 <0>         0.0987
     29 H11         4.4335   -2.6613    3.7141 H         1 <0>         0.0986
     30 H12         6.4815   -2.3507    2.3510 H         1 <0>         0.0659
     31 H13         6.6256   -0.6801    2.9481 H         1 <0>         0.0659
@<TRIPOS>BOND
     1    1    2 1
     2    1   20 1
     3    1   21 1
     4    1   22 1
     5    2    3 1
     6    2    4 1
     7    2    9 1
     8    4    8 1
     9    4    5 2
    10    5    6 1
    11    5   23 1
    12    6    7 2
    13    6   24 1
    14    7    8 1
    15    7   25 1
    16    9   10 am
    17    9   26 1
    18   10   11 2
    19   10   12 am
    20   12   13 am
    21   12   27 1
    22   13   14 2
    23   13   15 1
    24   15   16 1
    25   15   28 1
    26   15   29 1
    27   16   17 1
    28   16   30 1
    29   16   31 1
    30   17   18 2
    31   17   19 1
@<TRIPOS>MOLECULE
ZINC37794859
   31    32     0     0     0
SMALL
USER_CHARGES

@<TRIPOS>ATOM
      1 C1         -0.0144    1.3775   -0.0008 C.ar      1 <0>        -0.0747
      2 C2          1.1686    2.0860   -0.0016 C.ar      1 <0>        -0.1500
      3 C3          2.3835    1.4119   -0.0199 C.ar      1 <0>         0.1553
      4 C4          2.4095    0.0227   -0.0379 C.ar      1 <0>        -0.1221
      5 C5          1.2291   -0.6901   -0.0371 C.ar      1 <0>        -0.0909
      6 C6          0.0092   -0.0160   -0.0184 C.ar      1 <0>        -0.0316
      7 C7         -1.2623   -0.7807   -0.0170 C.2       1 <0>         0.0491
      8 C8         -1.3837   -2.1339   -0.0274 C.2       1 <0>        -0.0434
      9 N1         -2.7234   -2.4079   -0.0208 N.pl3     1 <0>        -0.5704
     10 H1         -3.1293   -3.2889   -0.0254 H         1 <0>         0.4211
     11 C9         -3.3779   -1.2261   -0.0068 C.2       1 <0>         0.1853
     12 N2         -2.5051   -0.2577    0.0005 N.2       1 <0>        -0.4848
     13 N3          3.5825    2.1330   -0.0207 N.am      1 <0>        -0.6821
     14 C10         4.6575    1.6538    0.6360 C.2       1 <0>         0.5110
     15 O1          4.6118    0.5594    1.1569 O.2       1 <0>        -0.5233
     16 C11         5.9164    2.4777    0.7230 C.3       1 <0>        -0.1111
     17 C12         6.9752    1.7090    1.5159 C.3       1 <0>        -0.1676
     18 C13         8.2341    2.5329    1.6029 C.2       1 <0>         0.4909
     19 O2          8.2800    3.6330    1.0793 O.co2     1 <0>        -0.7015
     20 O3          9.2065    2.0994    2.1970 O.co2     1 <0>        -0.7016
     21 H2         -0.9584    1.9019    0.0179 H         1 <0>         0.1312
     22 H3          1.1509    3.1658    0.0116 H         1 <0>         0.1266
     23 H4          3.3549   -0.4991   -0.0528 H         1 <0>         0.1423
     24 H5          1.2498   -1.7698   -0.0515 H         1 <0>         0.1224
     25 H6         -0.5784   -2.8535   -0.0391 H         1 <0>         0.1797
     26 H7         -4.4509   -1.1034    0.0013 H         1 <0>         0.2086
     27 H8          3.6401    2.9778   -0.4939 H         1 <0>         0.4118
     28 H9          6.2893    2.6786   -0.2813 H         1 <0>         0.0954
     29 H10         5.6996    3.4205    1.2254 H         1 <0>         0.0957
     30 H11         6.6023    1.5081    2.5203 H         1 <0>         0.0644
     31 H12         7.1920    0.7663    1.0136 H         1 <0>         0.0644
@<TRIPOS>BOND
     1    1    6 ar
     2    1    2 ar
     3    1   21 1
     4    2    3 ar
     5    2   22 1
     6    3    4 ar
     7    3   13 1
     8    4    5 ar
     9    4   23 1
    10    5    6 ar
    11    5   24 1
    12    6    7 1
    13    7   12 1
    14    7    8 2
    15    8    9 1
    16    8   25 1
    17    9   10 1
    18    9   11 1
    19   11   12 2
    20   11   26 1
    21   13   14 am
    22   13   27 1
    23   14   15 2
    24   14   16 1
    25   16   17 1
    26   16   28 1
    27   16   29 1
    28   17   18 1
    29   17   30 1
    30   17   31 1
    31   18   19 2
    32   18   20 1
@<TRIPOS>MOLECULE
ZINC41036012
   42    43     0     0     0
SMALL
USER_CHARGES

@<TRIPOS>ATOM
      1 C1         -0.0187    1.5258    0.0104 C.3       1 <0>        -0.1446
      2 C2          0.0021   -0.0041    0.0020 C.3       1 <0>        -0.0916
      3 H1          0.5123   -0.3556   -0.8948 H         1 <0>         0.0626
      4 C3         -1.4333   -0.5336    0.0129 C.3       1 <0>        -0.1091
      5 C4         -1.4126   -2.0635    0.0045 C.3       1 <0>        -0.1123
      6 C5         -0.6726   -2.5703    1.2440 C.3       1 <0>        -0.1132
      7 C6          0.7628   -2.0407    1.2331 C.3       1 <0>         0.1293
      8 C7          0.7421   -0.5109    1.2415 C.3       1 <0>        -0.0978
      9 C8          1.4917   -2.5400    2.4540 C.2       1 <0>         0.5002
     10 O1          2.4913   -3.2267    2.3289 O.co2     1 <0>        -0.6745
     11 O2          1.0818   -2.2571    3.5669 O.co2     1 <0>        -0.7043
     12 N1          1.4485   -2.5132    0.0278 N.am      1 <0>        -0.7156
     13 C9          1.5876   -3.8353   -0.1939 C.2       1 <0>         0.7137
     14 O3          1.1439   -4.6359    0.6064 O.2       1 <0>        -0.5663
     15 N2          2.2184   -4.2700   -1.3028 N.am      1 <0>        -0.7596
     16 C10         2.3696   -5.7071   -1.5438 C.3       1 <0>         0.1501
     17 C11         3.1159   -5.9275   -2.8611 C.3       1 <0>        -0.0476
     18 C12         3.2714   -7.4059   -3.1090 C.2       1 <0>        -0.1270
     19 C13         2.4454   -8.2517   -3.7720 C.2       1 <0>        -0.1624
     20 C14         2.7950   -9.5849   -3.8772 C.2       1 <0>        -0.1542
     21 C15         3.9536  -10.0070   -3.3143 C.2       1 <0>        -0.1825
     22 S1          4.5951   -8.4960   -2.6125 S.3       1 <0>         0.0396
     23 H2          1.0039    1.9031    0.0027 H         1 <0>         0.0516
     24 H3         -0.5459    1.8868   -0.8726 H         1 <0>         0.0483
     25 H4         -0.5289    1.8773    0.9072 H         1 <0>         0.0538
     26 H5         -1.9435   -0.1821    0.9097 H         1 <0>         0.0599
     27 H6         -1.9605   -0.1726   -0.8702 H         1 <0>         0.0514
     28 H7         -2.4352   -2.4408    0.0122 H         1 <0>         0.0505
     29 H8         -0.9024   -2.4150   -0.8923 H         1 <0>         0.0540
     30 H9         -1.1828   -2.2188    2.1408 H         1 <0>         0.0662
     31 H10        -0.6578   -3.6602    1.2380 H         1 <0>         0.0769
     32 H11         1.7647   -0.1336    1.2338 H         1 <0>         0.0571
     33 H12         0.2319   -0.1594    2.1383 H         1 <0>         0.0797
     34 H13         1.8025   -1.8745   -0.6107 H         1 <0>         0.3778
     35 H14         2.5724   -3.6312   -1.9413 H         1 <0>         0.3863
     36 H15         2.9348   -6.1550   -0.7266 H         1 <0>         0.0664
     37 H16         1.3851   -6.1713   -1.6019 H         1 <0>         0.0636
     38 H17         2.5506   -5.4796   -3.6783 H         1 <0>         0.0911
     39 H18         4.1004   -5.4634   -2.8030 H         1 <0>         0.0854
     40 H19         1.5276   -7.8895   -4.2112 H         1 <0>         0.1328
     41 H20         2.1545  -10.2799   -4.3998 H         1 <0>         0.1312
     42 H21         4.3799  -10.9992   -3.2980 H         1 <0>         0.1832
@<TRIPOS>BOND
     1    1    2 1
     2    1   23 1
     3    1   24 1
     4    1   25 1
     5    2    3 1
     6    2    8 1
     7    2    4 1
     8    4    5 1
     9    4   26 1
    10    4   27 1
    11    5    6 1
    12    5   28 1
    13    5   29 1
    14    6    7 1
    15    6   30 1
    16    6   31 1
    17    7    8 1
    18    7    9 1
    19    7   12 1
    20    8   32 1
    21    8   33 1
    22    9   10 2
    23    9   11 1
    24   12   13 am
    25   12   34 1
    26   13   14 2
    27   13   15 am
    28   15   16 1
    29   15   35 1
    30   16   17 1
    31   16   36 1
    32   16   37 1
    33   17   18 1
    34   17   38 1
    35   17   39 1
    36   18   22 1
    37   18   19 2
    38   19   20 1
    39   19   40 1
    40   20   21 2
    41   20   41 1
    42   21   22 1
    43   21   42 1
@<TRIPOS>MOLECULE
ZINC49532828
   41    41     0     0     0
SMALL
USER_CHARGES

@<TRIPOS>ATOM
      1 C1         -0.0187    1.5258    0.0104 C.3       1 <0>        -0.1561
      2 C2          0.0021   -0.0041    0.0020 C.3       1 <0>         0.2013
      3 H1          0.5293   -0.3651    0.8851 H         1 <0>         0.0988
      4 C3          0.7074   -0.4901   -1.2379 C.ar      1 <0>        -0.0528
      5 C4          0.0372   -0.5215   -2.4468 C.ar      1 <0>        -0.1239
      6 C5          0.6829   -0.9670   -3.5849 C.ar      1 <0>        -0.0873
      7 C6          1.9994   -1.3821   -3.5154 C.ar      1 <0>        -0.1582
      8 C7          2.6715   -1.3511   -2.3055 C.ar      1 <0>         0.1010
      9 C8          2.0255   -0.8988   -1.1672 C.ar      1 <0>        -0.1415
     10 F1          3.9583   -1.7569   -2.2364 F         1 <0>        -0.1403
     11 N1         -1.3723   -0.5112    0.0124 N.am      1 <0>        -0.7486
     12 C9         -2.0286   -0.6552    1.1807 C.2       1 <0>         0.7118
     13 O1         -1.4800   -0.3643    2.2261 O.2       1 <0>        -0.5931
     14 N2         -3.2931   -1.1217    1.1903 N.am      1 <0>        -0.7086
     15 C10        -4.0065   -1.2783    2.4602 C.3       1 <0>         0.1028
     16 H2         -3.7118   -0.4815    3.1431 H         1 <0>         0.0783
     17 C11        -3.6626   -2.6136    3.0683 C.2       1 <0>         0.4934
     18 O2         -2.8930   -3.3649    2.4940 O.co2     1 <0>        -0.6864
     19 O3         -4.1540   -2.9427    4.1344 O.co2     1 <0>        -0.6934
     20 C12        -5.5142   -1.2046    2.2107 C.3       1 <0>        -0.0599
     21 C13        -5.9277   -2.3231    1.2521 C.3       1 <0>        -0.1347
     22 C14        -6.2592   -1.3681    3.5370 C.3       1 <0>        -0.1448
     23 C15        -5.8633    0.1511    1.5934 C.3       1 <0>        -0.1353
     24 H3          1.0039    1.9031    0.0027 H         1 <0>         0.0630
     25 H4         -0.5459    1.8868   -0.8726 H         1 <0>         0.0558
     26 H5         -0.5289    1.8773    0.9072 H         1 <0>         0.0694
     27 H6         -0.9918   -0.1980   -2.5019 H         1 <0>         0.1288
     28 H7          0.1583   -0.9911   -4.5286 H         1 <0>         0.1332
     29 H8          2.5035   -1.7308   -4.4046 H         1 <0>         0.1337
     30 H9          2.5502   -0.8699   -0.2237 H         1 <0>         0.1388
     31 H10        -1.8100   -0.7432   -0.8215 H         1 <0>         0.3891
     32 H11        -3.7307   -1.3538    0.3563 H         1 <0>         0.3840
     33 H12        -5.6790   -3.2890    1.6919 H         1 <0>         0.0642
     34 H13        -7.0018   -2.2706    1.0744 H         1 <0>         0.0473
     35 H14        -5.3969   -2.2066    0.3073 H         1 <0>         0.0434
     36 H15        -5.9646   -0.5713    4.2199 H         1 <0>         0.0448
     37 H16        -7.3333   -1.3156    3.3592 H         1 <0>         0.0361
     38 H17        -6.0105   -2.3340    3.9768 H         1 <0>         0.1003
     39 H18        -5.3325    0.2676    0.6485 H         1 <0>         0.0474
     40 H19        -6.9374    0.2036    1.4156 H         1 <0>         0.0482
     41 H20        -5.5687    0.9480    2.2763 H         1 <0>         0.0500
@<TRIPOS>BOND
     1    1    2 1
     2    1   24 1
     3    1   25 1
     4    1   26 1
     5    2    3 1
     6    2    4 1
     7    2   11 1
     8    4    9 ar
     9    4    5 ar
    10    5    6 ar
    11    5   27 1
    12    6    7 ar
    13    6   28 1
    14    7    8 ar
    15    7   29 1
    16    8    9 ar
    17    8   10 1
    18    9   30 1
    19   11   12 am
    20   11   31 1
    21   12   13 2
    22   12   14 am
    23   14   15 1
    24   14   32 1
    25   15   16 1
    26   15   17 1
    27   15   20 1
    28   17   18 2
    29   17   19 1
    30   20   21 1
    31   20   22 1
    32   20   23 1
    33   21   33 1
    34   21   34 1
    35   21   35 1
    36   22   36 1
    37   22   37 1
    38   22   38 1
    39   23   39 1
    40   23   40 1
    41   23   41 1
@<TRIPOS>MOLECULE
ZINC62960288
   42    42     0     0     0
SMALL
USER_CHARGES

@<TRIPOS>ATOM
      1 C1          0.7550   -0.4922   -1.2670 C.3       1 <0>        -0.1555
      2 C2          0.0392   -0.0288    0.0034 C.3       1 <0>        -0.1175
      3 C3          0.7051   -0.6652    1.2250 C.3       1 <0>        -0.0541
      4 C4         -0.0618   -0.2680    2.4885 C.3       1 <0>        -0.1270
      5 C5         -1.5170   -0.7303    2.3642 C.3       1 <0>         0.1143
      6 N1         -1.5326   -2.1710    2.0768 N.am      1 <0>        -0.6313
      7 C6         -0.7536   -2.6724    0.9364 C.3       1 <0>         0.1322
      8 C7          0.6931   -2.1883    1.0766 C.3       1 <0>        -0.1288
      9 C8         -2.2476   -3.0168    2.8448 C.2       1 <0>         0.7082
     10 O1         -2.3299   -4.1914    2.5416 O.2       1 <0>        -0.5966
     11 N2         -2.8714   -2.5606    3.9490 N.am      1 <0>        -0.7075
     12 C9         -3.5470   -3.4986    4.8490 C.3       1 <0>         0.0877
     13 H1         -3.9873   -4.3078    4.2665 H         1 <0>         0.0924
     14 C10        -4.6485   -2.7650    5.6169 C.3       1 <0>         0.0863
     15 O2         -4.0602   -1.7804    6.4692 O.3       1 <0>        -0.5519
     16 C11        -2.5482   -4.0671    5.8238 C.2       1 <0>         0.4987
     17 O3         -1.5848   -3.4030    6.1665 O.co2     1 <0>        -0.6784
     18 O4         -2.7035   -5.1911    6.2699 O.co2     1 <0>        -0.7038
     19 C12         2.1505   -0.1748    1.3310 C.3       1 <0>        -0.1106
     20 C13         2.8496   -0.8939    2.4864 C.3       1 <0>        -0.1586
     21 H2          0.7587   -1.5816   -1.3050 H         1 <0>         0.0595
     22 H3          0.2348   -0.0999   -2.1408 H         1 <0>         0.0486
     23 H4          1.7814   -0.1254   -1.2600 H         1 <0>         0.0537
     24 H5          0.1013    1.0567    0.0800 H         1 <0>         0.0590
     25 H6         -1.0073   -0.3307   -0.0385 H         1 <0>         0.0669
     26 H7          0.3974   -0.7411    3.3565 H         1 <0>         0.0762
     27 H8         -0.0329    0.8152    2.6061 H         1 <0>         0.0699
     28 H9         -2.0424   -0.5386    3.2998 H         1 <0>         0.0770
     29 H10        -2.0038   -0.1903    1.5521 H         1 <0>         0.0634
     30 H11        -0.7753   -3.7621    0.9298 H         1 <0>         0.0890
     31 H12        -1.1781   -2.2908    0.0078 H         1 <0>         0.0588
     32 H13         1.2592   -2.4719    0.1894 H         1 <0>         0.0733
     33 H14         1.1451   -2.6433    1.9580 H         1 <0>         0.0719
     34 H15        -2.8731   -1.6111    4.1477 H         1 <0>         0.3914
     35 H16        -5.3216   -2.2789    4.9108 H         1 <0>         0.0373
     36 H17        -5.2087   -3.4796    6.2199 H         1 <0>         0.0567
     37 H18        -4.7014   -1.2754    6.9878 H         1 <0>         0.3636
     38 H19         2.6755   -0.3874    0.3998 H         1 <0>         0.0622
     39 H20         2.1570    0.8996    1.5147 H         1 <0>         0.0584
     40 H21         2.2738   -0.7565    3.4016 H         1 <0>         0.0601
     41 H22         2.9241   -1.9576    2.2603 H         1 <0>         0.0568
     42 H23         3.8491   -0.4801    2.6204 H         1 <0>         0.0482
@<TRIPOS>BOND
     1    1    2 1
     2    1   21 1
     3    1   22 1
     4    1   23 1
     5    2    3 1
     6    2   24 1
     7    2   25 1
     8    3    8 1
     9    3    4 1
    10    3   19 1
    11    4    5 1
    12    4   26 1
    13    4   27 1
    14    5    6 1
    15    5   28 1
    16    5   29 1
    17    6    7 1
    18    6    9 am
    19    7    8 1
    20    7   30 1
    21    7   31 1
    22    8   32 1
    23    8   33 1
    24    9   10 2
    25    9   11 am
    26   11   12 1
    27   11   34 1
    28   12   13 1
    29   12   14 1
    30   12   16 1
    31   14   15 1
    32   14   35 1
    33   14   36 1
    34   15   37 1
    35   16   17 2
    36   16   18 1
    37   19   20 1
    38   19   38 1
    39   19   39 1
    40   20   40 1
    41   20   41 1
    42   20   42 1
@<TRIPOS>MOLECULE
ZINC36786196
   37    38     0     0     0
SMALL
USER_CHARGES

@<TRIPOS>ATOM
      1 C1          0.2749    1.3183   -0.0316 C.3       1 <0>        -0.1516
      2 C2          0.0904   -0.1937    0.1120 C.3       1 <0>         0.2134
      3 H1          0.5713   -0.6995   -0.7253 H         1 <0>         0.0662
      4 C3          0.7242   -0.6625    1.4232 C.3       1 <0>        -0.1581
      5 C4          1.2084    0.4128    2.3980 C.3       1 <0>        -0.1833
      6 C5          2.2230   -0.4186    1.6103 C.3       1 <0>        -0.1814
      7 N1         -1.3394   -0.5127    0.1192 N.pl3     1 <0>        -0.6493
      8 C6         -2.2216    0.0999    1.1156 C.3       1 <0>         0.1259
      9 C7         -1.8580   -1.3948   -0.8173 C.ar      1 <0>         0.2647
     10 C8         -1.7995   -2.7653   -0.5940 C.ar      1 <0>        -0.1667
     11 C9         -2.3159   -3.6403   -1.5267 C.ar      1 <0>        -0.0262
     12 C10        -2.8964   -3.1634   -2.6924 C.ar      1 <0>        -0.6976
     13 C11        -2.9644   -1.8097   -2.9329 C.ar      1 <0>         0.0199
     14 C12        -2.4507   -0.9076   -1.9946 C.ar      1 <0>        -0.1694
     15 C13        -2.5246    0.5400   -2.2419 C.2       1 <0>         0.5197
     16 O1         -2.9458    0.9570   -3.3123 O.co2     1 <0>        -0.6912
     17 O2         -2.1651    1.3275   -1.3772 O.co2     1 <0>        -0.6550
     18 S1         -3.5501   -4.2967   -3.8726 S.o2      1 <0>         2.7017
     19 O3         -3.5474   -3.6253   -5.1250 O.2       1 <0>        -0.9665
     20 O4         -2.8753   -5.5304   -3.6681 O.2       1 <0>        -0.9762
     21 N2         -5.1374   -4.5542   -3.4771 N.pl3     1 <0>        -1.2521
     22 H2          1.3287    1.5689    0.0895 H         1 <0>         0.0366
     23 H3         -0.0623    1.6334   -1.0191 H         1 <0>         0.0817
     24 H4         -0.3104    1.8300    0.7325 H         1 <0>         0.0558
     25 H5          0.3060   -1.5754    1.8475 H         1 <0>         0.0992
     26 H6          1.0754    1.4542    2.1051 H         1 <0>         0.1014
     27 H7          1.1087    0.2075    3.4639 H         1 <0>         0.0846
     28 H8          2.7908   -1.1707    2.1580 H         1 <0>         0.0876
     29 H9          2.7575    0.0760    0.7993 H         1 <0>         0.0924
     30 H10        -2.6186    1.0360    0.7228 H         1 <0>         0.0599
     31 H11        -3.0449   -0.5788    1.3382 H         1 <0>         0.0338
     32 H12        -1.6577    0.2984    2.0270 H         1 <0>         0.0462
     33 H13        -1.3489   -3.1456    0.3109 H         1 <0>         0.1243
     34 H14        -2.2674   -4.7044   -1.3483 H         1 <0>         0.1325
     35 H15        -3.4170   -1.4443   -3.8429 H         1 <0>         0.1443
     36 H16        -5.5253   -4.1044   -2.7101 H         1 <0>         0.4168
     37 H17        -5.6794   -5.1548   -4.0123 H         1 <0>         0.4156
@<TRIPOS>BOND
     1    1    2 1
     2    1   22 1
     3    1   23 1
     4    1   24 1
     5    2    3 1
     6    2    4 1
     7    2    7 1
     8    4    6 1
     9    4    5 1
    10    4   25 1
    11    5    6 1
    12    5   26 1
    13    5   27 1
    14    6   28 1
    15    6   29 1
    16    7    8 1
    17    7    9 1
    18    8   30 1
    19    8   31 1
    20    8   32 1
    21    9   14 ar
    22    9   10 ar
    23   10   11 ar
    24   10   33 1
    25   11   12 ar
    26   11   34 1
    27   12   13 ar
    28   12   18 1
    29   13   14 ar
    30   13   35 1
    31   14   15 1
    32   15   16 2
    33   15   17 1
    34   18   19 2
    35   18   20 2
    36   18   21 1
    37   21   36 1
    38   21   37 1
@<TRIPOS>MOLECULE
ZINC38107802
   32    33     0     0     0
SMALL
USER_CHARGES

@<TRIPOS>ATOM
      1 C1         -0.0184    1.5028    0.0103 C.3       1 <0>        -0.0928
      2 C2          0.0021   -0.0041    0.0020 C.2       1 <0>         0.1737
      3 C3          0.0059   -0.7070   -1.1586 C.2       1 <0>        -0.7223
      4 S1          0.0324   -2.3787   -0.5318 S.3       1 <0>         0.3144
      5 C4          0.0357   -2.0101    1.1104 C.2       1 <0>         0.0596
      6 N1          0.0226   -0.6995    1.1225 N.2       1 <0>        -0.5223
      7 Cl1         0.0578   -3.1010    2.4607 Cl        1 <0>         0.0490
      8 S2         -0.0112   -0.1300   -2.8234 S.o2      1 <0>         2.6306
      9 O1         -1.3672   -0.1538   -3.2476 O.2       1 <0>        -1.0166
     10 O2          0.7750    1.0534   -2.8511 O.2       1 <0>        -1.0097
     11 N2          0.7910   -1.2527   -3.7390 N.2       1 <0>        -1.0895
     12 C5          0.9357   -1.0576   -5.1145 C.ar      1 <0>         0.2826
     13 C6          0.4123    0.0804   -5.7150 C.ar      1 <0>        -0.2622
     14 C7          0.5575    0.2703   -7.0752 C.ar      1 <0>        -0.0479
     15 C8          1.2227   -0.6710   -7.8393 C.ar      1 <0>        -0.1821
     16 C9          1.7450   -1.8050   -7.2446 C.ar      1 <0>        -0.0621
     17 C10         1.6083   -1.9984   -5.8840 C.ar      1 <0>        -0.1789
     18 C11         1.3784   -0.4608   -9.3234 C.3       1 <0>        -0.0787
     19 C12         2.6556    0.2923   -9.5928 C.2       1 <0>         0.5084
     20 O3          3.3692    0.6256   -8.6705 O.2       1 <0>        -0.5245
     21 N3          3.0049    0.5956  -10.8587 N.am      1 <0>        -0.8681
     22 H1          1.0042    1.8801    0.0026 H         1 <0>         0.0945
     23 H2         -0.5455    1.8639   -0.8728 H         1 <0>         0.0804
     24 H3         -0.5286    1.8543    0.9071 H         1 <0>         0.0823
     25 H4         -0.1080    0.8155   -5.1190 H         1 <0>         0.0959
     26 H5          0.1508    1.1548   -7.5428 H         1 <0>         0.0994
     27 H6          2.2639   -2.5382   -7.8442 H         1 <0>         0.1024
     28 H7          2.0203   -2.8820   -5.4195 H         1 <0>         0.1129
     29 H8          1.4138   -1.4276   -9.8255 H         1 <0>         0.0906
     30 H9          0.5317    0.1133   -9.6998 H         1 <0>         0.0897
     31 H10         2.4341    0.3291  -11.5964 H         1 <0>         0.3969
     32 H11         3.8270    1.0803  -11.0322 H         1 <0>         0.3945
@<TRIPOS>BOND
     1    1    2 1
     2    1   22 1
     3    1   23 1
     4    1   24 1
     5    2    6 1
     6    2    3 2
     7    3    4 1
     8    3    8 1
     9    4    5 1
    10    5    6 2
    11    5    7 1
    12    8    9 2
    13    8   10 2
    14    8   11 1
    15   11   12 1
    16   12   17 ar
    17   12   13 ar
    18   13   14 ar
    19   13   25 1
    20   14   15 ar
    21   14   26 1
    22   15   16 ar
    23   15   18 1
    24   16   17 ar
    25   16   27 1
    26   17   28 1
    27   18   19 1
    28   18   29 1
    29   18   30 1
    30   19   20 2
    31   19   21 am
    32   21   31 1
    33   21   32 1
@<TRIPOS>MOLECULE
ZINC50226514
   30    31     0     0     0
SMALL
USER_CHARGES

@<TRIPOS>ATOM
      1 C1         -0.0184    1.5028    0.0103 C.3       1 <0>        -0.0698
      2 C2          0.0021   -0.0041    0.0020 C.2       1 <0>        -0.1441
      3 C3         -1.0392   -0.8719    0.0017 C.2       1 <0>        -0.1655
      4 C4         -0.7802   -2.2296   -0.0075 C.2       1 <0>        -0.1360
      5 C5          0.5074   -2.6532   -0.0160 C.2       1 <0>        -0.1530
      6 S1          1.4039   -1.1093   -0.0179 S.3       1 <0>         0.0483
      7 C6          1.0430   -4.0617   -0.0269 C.3       1 <0>         0.2029
      8 N1          1.2102   -4.5100   -1.4116 N.pl3     1 <0>        -1.1191
      9 S2          2.1180   -5.8548   -1.7427 S.o2      1 <0>         2.7253
     10 O1          2.0670   -6.0428   -3.1502 O.2       1 <0>        -0.9741
     11 O2          3.3426   -5.7016   -1.0384 O.2       1 <0>        -0.9629
     12 C7          1.2906   -7.2326   -1.0203 C.2       1 <0>        -0.7576
     13 C8          1.4788   -7.7174    0.2759 C.2       1 <0>        -0.0884
     14 C9          0.6355   -8.8019    0.4268 C.2       1 <0>        -0.0296
     15 N2         -0.0461   -8.9631   -0.7601 N.pl3     1 <0>        -0.5079
     16 H1         -0.7074   -9.6486   -0.9436 H         1 <0>         0.4219
     17 C10         0.3542   -8.0066   -1.6223 C.2       1 <0>         0.0941
     18 C11         0.4931   -9.6267    1.6249 C.2       1 <0>         0.5461
     19 O3         -0.2937  -10.5654    1.6322 O.co2     1 <0>        -0.6934
     20 O4          1.1605   -9.3791    2.6217 O.co2     1 <0>        -0.6683
     21 H2          1.0042    1.8801    0.0026 H         1 <0>         0.0719
     22 H3         -0.5455    1.8639   -0.8728 H         1 <0>         0.0792
     23 H4         -0.5286    1.8543    0.9071 H         1 <0>         0.0797
     24 H5         -2.0560   -0.5079    0.0090 H         1 <0>         0.1316
     25 H6         -1.5916   -2.9424   -0.0076 H         1 <0>         0.1361
     26 H7          2.0064   -4.0880    0.4823 H         1 <0>         0.0968
     27 H8          0.3427   -4.7207    0.4863 H         1 <0>         0.0952
     28 H9          0.7891   -4.0190   -2.1344 H         1 <0>         0.4160
     29 H10         2.1547   -7.3204    1.0188 H         1 <0>         0.1509
     30 H11        -0.0103   -7.8793   -2.6309 H         1 <0>         0.1739
@<TRIPOS>BOND
     1    1    2 1
     2    1   21 1
     3    1   22 1
     4    1   23 1
     5    2    6 1
     6    2    3 2
     7    3    4 1
     8    3   24 1
     9    4    5 2
    10    4   25 1
    11    5    6 1
    12    5    7 1
    13    7    8 1
    14    7   26 1
    15    7   27 1
    16    8    9 1
    17    8   28 1
    18    9   10 2
    19    9   11 2
    20    9   12 1
    21   12   17 2
    22   12   13 1
    23   13   14 2
    24   13   29 1
    25   14   15 1
    26   14   18 1
    27   15   16 1
    28   15   17 1
    29   17   30 1
    30   18   19 2
    31   18   20 1
@<TRIPOS>MOLECULE
ZINC62827901
   39    39     0     0     0
SMALL
USER_CHARGES

@<TRIPOS>ATOM
      1 C1          0.3421    1.8493    0.8644 C.3       1 <0>        -0.0983
      2 C2          0.3877    0.3479    0.7424 C.2       1 <0>        -0.0423
      3 C3          0.5995   -0.2664   -0.4345 C.2       1 <0>        -0.2685
      4 S1          0.5561   -1.9940   -0.0113 S.3       1 <0>         0.1934
      5 C4          0.2718   -1.8885    1.6388 C.2       1 <0>         0.0649
      6 C5          0.2123   -0.5212    1.8857 C.2       1 <0>        -0.2487
      7 C6         -0.0128   -0.0066    3.1871 C.2       1 <0>         0.5404
      8 O1         -0.0631    1.2042    3.3668 O.co2     1 <0>        -0.6838
      9 O2         -0.1570   -0.7726    4.1322 O.co2     1 <0>        -0.7079
     10 N1          0.1330   -2.9245    2.5468 N.am      1 <0>        -0.6176
     11 C7          0.2256   -4.2028    2.1300 C.2       1 <0>         0.6947
     12 O3          0.3309   -4.4494    0.9442 O.2       1 <0>        -0.5758
     13 N2          0.2013   -5.2077    3.0278 N.am      1 <0>        -0.6138
     14 C8          0.4170   -6.5884    2.5878 C.3       1 <0>         0.1338
     15 C9          1.8944   -6.9510    2.7516 C.3       1 <0>         0.0579
     16 O4          2.2339   -6.9504    4.1396 O.3       1 <0>        -0.5674
     17 C10        -0.0407   -4.9195    4.4436 C.3       1 <0>         0.1404
     18 C11         1.0882   -4.0402    4.9852 C.3       1 <0>        -0.1797
     19 C12        -1.3751   -4.1863    4.5939 C.3       1 <0>        -0.1865
     20 C13         0.8207    0.3585   -1.7878 C.3       1 <0>        -0.0481
     21 H1          1.3447    2.2283    1.0623 H         1 <0>         0.0565
     22 H2         -0.0315    2.2781   -0.0654 H         1 <0>         0.0416
     23 H3         -0.3199    2.1272    1.6845 H         1 <0>         0.1053
     24 H4         -0.0308   -2.7302    3.4829 H         1 <0>         0.4388
     25 H5         -0.1914   -7.2614    3.1918 H         1 <0>         0.0822
     26 H6          0.1334   -6.6842    1.5397 H         1 <0>         0.1026
     27 H7          2.0738   -7.9417    2.3340 H         1 <0>         0.0534
     28 H8          2.5085   -6.2189    2.2270 H         1 <0>         0.0496
     29 H9          3.1579   -7.1724    4.3186 H         1 <0>         0.3755
     30 H10        -0.0743   -5.8537    5.0040 H         1 <0>         0.0975
     31 H11         1.0659   -3.0716    4.4856 H         1 <0>         0.0760
     32 H12         0.9559   -3.8988    6.0579 H         1 <0>         0.0692
     33 H13         2.0470   -4.5236    4.7980 H         1 <0>         0.0653
     34 H14        -2.1906   -4.8567    4.3225 H         1 <0>         0.0583
     35 H15        -1.4983   -3.8643    5.6280 H         1 <0>         0.0769
     36 H16        -1.3871   -3.3155    3.9383 H         1 <0>         0.0750
     37 H17         1.8869    0.5261   -1.9407 H         1 <0>         0.0616
     38 H18         0.4432   -0.3091   -2.5624 H         1 <0>         0.0595
     39 H19         0.2922    1.3104   -1.8393 H         1 <0>         0.0686
@<TRIPOS>BOND
     1    1    2 1
     2    1   21 1
     3    1   22 1
     4    1   23 1
     5    2    6 1
     6    2    3 2
     7    3    4 1
     8    3   20 1
     9    4    5 1
    10    5    6 2
    11    5   10 1
    12    6    7 1
    13    7    8 2
    14    7    9 1
    15   10   11 am
    16   10   24 1
    17   11   12 2
    18   11   13 am
    19   13   14 1
    20   13   17 1
    21   14   15 1
    22   14   25 1
    23   14   26 1
    24   15   16 1
    25   15   27 1
    26   15   28 1
    27   16   29 1
    28   17   18 1
    29   17   19 1
    30   17   30 1
    31   18   31 1
    32   18   32 1
    33   18   33 1
    34   19   34 1
    35   19   35 1
    36   19   36 1
    37   20   37 1
    38   20   38 1
    39   20   39 1
@<TRIPOS>MOLECULE
ZINC66250612
   29    30     0     0     0
SMALL
USER_CHARGES

@<TRIPOS>ATOM
      1 C1         -0.0167    1.3801    0.0096 C.ar      1 <0>        -0.2300
      2 C2          1.1726    2.0885    0.0021 C.ar      1 <0>         0.2025
      3 C3          2.3807    1.4128   -0.0130 C.ar      1 <0>        -0.2298
      4 C4          2.3995    0.0286   -0.0206 C.ar      1 <0>         0.2610
      5 C5          1.2102   -0.6798   -0.0126 C.ar      1 <0>        -0.7224
      6 C6          0.0021   -0.0041    0.0020 C.ar      1 <0>         0.2604
      7 F1         -1.1586   -0.6954    0.0093 F         1 <0>        -0.0918
      8 S1          1.2341   -2.4416   -0.0234 S.o2      1 <0>         2.6170
      9 O1         -0.0113   -2.8614   -0.5639 O.2       1 <0>        -0.9906
     10 O2          2.4790   -2.8275   -0.5894 O.2       1 <0>        -0.9892
     11 N1          1.2570   -2.9407    1.5555 N.2       1 <0>        -1.0111
     12 C7          1.2785   -4.2940    1.8543 C.2       1 <0>         0.4373
     13 N2          1.2930   -4.8702    3.0374 N.2       1 <0>        -0.5755
     14 C8          1.3126   -6.1863    3.1548 C.2       1 <0>         0.1303
     15 C9          1.3169   -6.9070    2.0078 C.2       1 <0>        -0.3042
     16 S2          1.2848   -5.5996    0.7923 S.3       1 <0>        -0.1228
     17 C10         1.3299   -6.8557    4.5048 C.3       1 <0>        -0.0605
     18 C11         2.4906   -6.3317    5.3106 C.2       1 <0>         0.5147
     19 O3          3.2308   -5.4968    4.8353 O.2       1 <0>        -0.5068
     20 N3          2.7059   -6.7908    6.5593 N.am      1 <0>        -0.8686
     21 F2          3.5785   -0.6309   -0.0363 F         1 <0>        -0.0910
     22 F3          1.1543    3.4394    0.0090 F         1 <0>        -0.1187
     23 H1         -0.9591    1.9073    0.0260 H         1 <0>         0.1621
     24 H2          3.3086    1.9654   -0.0193 H         1 <0>         0.1622
     25 H3          1.3319   -7.9777    1.8674 H         1 <0>         0.1718
     26 H4          0.3981   -6.6418    5.0284 H         1 <0>         0.1017
     27 H5          1.4346   -7.9329    4.3749 H         1 <0>         0.1010
     28 H6          2.1138   -7.4585    6.9394 H         1 <0>         0.3955
     29 H7          3.4530   -6.4535    7.0779 H         1 <0>         0.3955
@<TRIPOS>BOND
     1    1    6 ar
     2    1    2 ar
     3    1   23 1
     4    2    3 ar
     5    2   22 1
     6    3    4 ar
     7    3   24 1
     8    4    5 ar
     9    4   21 1
    10    5    6 ar
    11    5    8 1
    12    6    7 1
    13    8    9 2
    14    8   10 2
    15    8   11 1
    16   11   12 1
    17   12   16 1
    18   12   13 2
    19   13   14 1
    20   14   15 2
    21   14   17 1
    22   15   16 1
    23   15   25 1
    24   17   18 1
    25   17   26 1
    26   17   27 1
    27   18   19 2
    28   18   20 am
    29   20   28 1
    30   20   29 1
@<TRIPOS>MOLECULE
ZINC10425810
   68    70     0     0     0
SMALL
USER_CHARGES
N-[1-[3-(1,3-dioxo-2,4-diazaspiro[4.4]non-2-yl)propylcarbamoyl]-2-methyl-propyl]-3,5-dimethoxy-benzamide
@<TRIPOS>ATOM
      1 C1         -2.0407    5.0025   -2.2549 C.3       1 <0>        -0.1505
      2 C2         -3.1127    4.3277   -1.3968 C.3       1 <0>        -0.1013
      3 C3         -3.4293    2.9450   -1.9703 C.3       1 <0>        -0.1414
      4 C4         -2.5996    4.1798    0.0371 C.3       1 <0>         0.1321
      5 H1         -3.3258    3.6205    0.6269 H         1 <0>         0.1189
      6 C5         -2.4043    5.5452    0.6440 C.2       1 <0>         0.5157
      7 O1         -1.3062    5.8857    1.0303 O.2       1 <0>        -0.5298
      8 N1         -3.4499    6.3880    0.7576 N.am      1 <0>        -0.7242
      9 C6         -3.2600    7.7154    1.3477 C.3       1 <0>         0.1242
     10 C7         -4.5941    8.4645    1.3581 C.3       1 <0>        -0.1496
     11 C8         -4.3958    9.8508    1.9743 C.3       1 <0>         0.1213
     12 N2         -5.6732   10.5681    1.9843 N.am      1 <0>        -0.5779
     13 C9         -6.5615   10.5227    3.0005 C.2       1 <0>         0.5336
     14 O2         -6.4603    9.9054    4.0390 O.2       1 <0>        -0.4560
     15 C10        -7.7058   11.4035    2.5680 C.3       1 <0>         0.1150
     16 C11        -7.9103   12.5643    3.5505 C.3       1 <0>        -0.1212
     17 C12        -9.4465   12.7762    3.5658 C.3       1 <0>        -0.1226
     18 C13        -9.9950   11.3303    3.4672 C.3       1 <0>        -0.1237
     19 C14        -9.0183   10.6187    2.5046 C.3       1 <0>        -0.1178
     20 N3         -7.3118   11.8934    1.2455 N.am      1 <0>        -0.7159
     21 C15        -6.1027   11.3549    0.9892 C.2       1 <0>         0.7014
     22 O3         -5.4748   11.5577   -0.0315 O.2       1 <0>        -0.5369
     23 N4         -1.3223    3.4625    0.0271 N.am      1 <0>        -0.7037
     24 C16        -1.3062    2.1149    0.0197 C.2       1 <0>         0.5679
     25 O4         -2.3515    1.4946    0.0213 O.2       1 <0>        -0.5207
     26 C17        -0.0168    1.3909    0.0097 C.ar      1 <0>        -0.0575
     27 C18         1.1841    2.1010    0.0020 C.ar      1 <0>        -0.1555
     28 C19         2.3895    1.4189   -0.0122 C.ar      1 <0>         0.1624
     29 C20         2.4038    0.0317   -0.0203 C.ar      1 <0>        -0.2737
     30 C21         1.2119   -0.6782   -0.0132 C.ar      1 <0>         0.1613
     31 C22         0.0021   -0.0041    0.0020 C.ar      1 <0>        -0.1270
     32 O5          1.2315   -2.0372   -0.0206 O.3       1 <0>        -0.3089
     33 C23         2.5139   -2.6674   -0.0363 C.3       1 <0>         0.0247
     34 O6          3.5600    2.1096   -0.0183 O.3       1 <0>        -0.3099
     35 C24         4.7657    1.3428   -0.0331 C.3       1 <0>         0.0248
     36 H2         -1.1371    4.3929   -2.2534 H         1 <0>         0.0600
     37 H3         -2.4062    5.1079   -3.2764 H         1 <0>         0.0622
     38 H4         -1.8152    5.9875   -1.8463 H         1 <0>         0.0540
     39 H5         -4.0163    4.9373   -1.3983 H         1 <0>         0.0825
     40 H6         -4.1929    2.4642   -1.3589 H         1 <0>         0.0643
     41 H7         -3.7948    3.0504   -2.9918 H         1 <0>         0.0536
     42 H8         -2.5257    2.3354   -1.9688 H         1 <0>         0.0607
     43 H9         -4.3281    6.1157    0.4487 H         1 <0>         0.4039
     44 H10        -2.8945    7.6101    2.3692 H         1 <0>         0.0755
     45 H11        -2.5339    8.2748    0.7579 H         1 <0>         0.0765
     46 H12        -4.9596    8.5699    0.3366 H         1 <0>         0.0806
     47 H13        -5.3203    7.9052    1.9479 H         1 <0>         0.0774
     48 H14        -4.0303    9.7455    2.9958 H         1 <0>         0.1005
     49 H15        -3.6696   10.4101    1.3845 H         1 <0>         0.1032
     50 H16        -7.5521   12.2922    4.5434 H         1 <0>         0.0905
     51 H17        -7.4043   13.4611    3.1932 H         1 <0>         0.0853
     52 H18        -9.7629   13.3684    2.7071 H         1 <0>         0.0732
     53 H19        -9.7620   13.2460    4.4973 H         1 <0>         0.0794
     54 H20       -11.0037   11.3323    3.0543 H         1 <0>         0.0771
     55 H21        -9.9834   10.8504    4.4458 H         1 <0>         0.0762
     56 H22        -9.4151   10.6340    1.4896 H         1 <0>         0.0873
     57 H23        -8.8559    9.5906    2.8283 H         1 <0>         0.0819
     58 H24        -7.8173   12.4894    0.6710 H         1 <0>         0.4413
     59 H25        -0.4881    3.9575    0.0259 H         1 <0>         0.4117
     60 H26         1.1738    3.1809    0.0076 H         1 <0>         0.1379
     61 H27         3.3455   -0.4970   -0.0317 H         1 <0>         0.1400
     62 H28        -0.9253   -0.5575    0.0083 H         1 <0>         0.1483
     63 H29         3.0581   -2.3618   -0.9299 H         1 <0>         0.0568
     64 H30         3.0751   -2.3713    0.8500 H         1 <0>         0.0568
     65 H31         2.3866   -3.7500   -0.0409 H         1 <0>         0.1053
     66 H32         4.8042    0.7092    0.8530 H         1 <0>         0.0569
     67 H33         4.7889    0.7194   -0.9269 H         1 <0>         0.0568
     68 H34         5.6238    2.0150   -0.0366 H         1 <0>         0.1052
@<TRIPOS>BOND
     1    1    2 1
     2    1   36 1
     3    1   37 1
     4    1   38 1
     5    2    3 1
     6    2    4 1
     7    2   39 1
     8    3   40 1
     9    3   41 1
    10    3   42 1
    11    4    5 1
    12    4    6 1
    13    4   23 1
    14    6    7 2
    15    6    8 am
    16    8    9 1
    17    8   43 1
    18    9   10 1
    19    9   44 1
    20    9   45 1
    21   10   11 1
    22   10   46 1
    23   10   47 1
    24   11   12 1
    25   11   48 1
    26   11   49 1
    27   12   21 am
    28   12   13 am
    29   13   14 2
    30   13   15 1
    31   15   19 1
    32   15   16 1
    33   15   20 1
    34   16   17 1
    35   16   50 1
    36   16   51 1
    37   17   18 1
    38   17   52 1
    39   17   53 1
    40   18   19 1
    41   18   54 1
    42   18   55 1
    43   19   56 1
    44   19   57 1
    45   20   21 am
    46   20   58 1
    47   21   22 2
    48   23   24 am
    49   23   59 1
    50   24   25 2
    51   24   26 1
    52   26   31 ar
    53   26   27 ar
    54   27   28 ar
    55   27   60 1
    56   28   29 ar
    57   28   34 1
    58   29   30 ar
    59   29   61 1
    60   30   31 ar
    61   30   32 1
    62   31   62 1
    63   32   33 1
    64   33   63 1
    65   33   64 1
    66   33   65 1
    67   34   35 1
    68   35   66 1
    69   35   67 1
    70   35   68 1
@<TRIPOS>MOLECULE
ZINC15089261
   62    63     0     0     0
SMALL
USER_CHARGES
(2R)-N-carbamoyl-2-[[5-[3-(diethylsulfamoyl)phenyl]-4-isobutyl-1,2,4-triazol-3-yl]sulfanyl]propanamide
@<TRIPOS>ATOM
      1 C1          7.0593   -0.5277    0.0486 C.3       1 <0>        -0.1751
      2 C2          5.7401   -0.1025   -0.5994 C.3       1 <0>         0.1181
      3 N1          4.7091   -1.1021   -0.3095 N.pl3     1 <0>        -0.9938
      4 C3          4.5809   -2.2895   -1.1579 C.3       1 <0>         0.1074
      5 C4          3.7102   -1.9576   -2.3714 C.3       1 <0>        -0.1782
      6 S1          3.6887   -0.8899    0.9774 S.o2      1 <0>         2.6871
      7 O1          4.3607   -0.0347    1.8919 O.2       1 <0>        -0.9464
      8 O2          3.2229   -2.1815    1.3437 O.2       1 <0>        -0.9509
      9 C5          2.2878    0.0027    0.3897 C.ar      1 <0>        -0.6726
     10 C6          1.1910   -0.6813   -0.1046 C.ar      1 <0>        -0.0059
     11 C7          0.0871    0.0119   -0.5679 C.ar      1 <0>        -0.1302
     12 C8          0.0732    1.3913   -0.5399 C.ar      1 <0>        -0.0551
     13 C9          1.1758    2.0872   -0.0423 C.ar      1 <0>        -0.0296
     14 C10         2.2865    1.3816    0.4237 C.ar      1 <0>         0.0225
     15 C11         1.1680    3.5652   -0.0098 C.2       1 <0>         0.2238
     16 N2          2.2018    4.3549   -0.1852 N.2       1 <0>        -0.2603
     17 N3          1.8356    5.5834   -0.0952 N.2       1 <0>        -0.2860
     18 C12         0.5467    5.6531    0.1530 C.2       1 <0>         0.1511
     19 N4          0.0769    4.3724    0.2160 N.pl3     1 <0>        -0.4482
     20 C13        -1.3016    3.9467    0.4704 C.3       1 <0>         0.0927
     21 C14        -1.5548    3.9134    1.9790 C.3       1 <0>        -0.1123
     22 C15        -3.0271    3.5903    2.2419 C.3       1 <0>        -0.1455
     23 C16        -0.6745    2.8389    2.6203 C.3       1 <0>        -0.1529
     24 S2         -0.3989    7.1248    0.3643 S.3       1 <0>         0.0847
     25 C17         0.8988    8.3669    0.1424 C.3       1 <0>        -0.1106
     26 H1          1.3972    8.2048   -0.8134 H         1 <0>         0.1311
     27 C18         1.9190    8.2467    1.2762 C.3       1 <0>        -0.1475
     28 C19         0.2855    9.7433    0.1622 C.2       1 <0>         0.5420
     29 O3         -0.7648    9.9307    0.7380 O.2       1 <0>        -0.4465
     30 N5          0.9046   10.7659   -0.4602 N.am      1 <0>        -0.6838
     31 C20         0.3561   11.9969   -0.4425 C.2       1 <0>         0.6980
     32 O4         -0.6968   12.1848    0.1347 O.2       1 <0>        -0.5292
     33 N6          0.9753   13.0195   -1.0649 N.am      1 <0>        -0.8543
     34 H2          7.8263    0.2161   -0.1671 H         1 <0>         0.0710
     35 H3          6.9248   -0.6086    1.1272 H         1 <0>         0.0639
     36 H4          7.3665   -1.4934   -0.3527 H         1 <0>         0.0601
     37 H5          5.8746   -0.0216   -1.6780 H         1 <0>         0.0826
     38 H6          5.4328    0.8632   -0.1981 H         1 <0>         0.0832
     39 H7          5.5688   -2.6039   -1.4946 H         1 <0>         0.0879
     40 H8          4.1180   -3.0951   -0.5880 H         1 <0>         0.0945
     41 H9          2.7223   -1.6433   -2.0347 H         1 <0>         0.0547
     42 H10         4.1731   -1.1521   -2.9414 H         1 <0>         0.0625
     43 H11         3.6148   -2.8411   -3.0027 H         1 <0>         0.0719
     44 H12         1.1970   -1.7610   -0.1290 H         1 <0>         0.1465
     45 H13        -0.7655   -0.5279   -0.9528 H         1 <0>         0.1430
     46 H14        -0.7872    1.9314   -0.9064 H         1 <0>         0.1347
     47 H15         3.1430    1.9142    0.8100 H         1 <0>         0.1502
     48 H16        -1.9911    4.6488    0.0017 H         1 <0>         0.1036
     49 H17        -1.4573    2.9516    0.0538 H         1 <0>         0.1074
     50 H18        -1.3136    4.8853    2.4094 H         1 <0>         0.0856
     51 H19        -3.2683    2.6184    1.8114 H         1 <0>         0.0600
     52 H20        -3.2075    3.5665    3.3166 H         1 <0>         0.0685
     53 H21        -3.6542    4.3558    1.7850 H         1 <0>         0.0625
     54 H22         0.3743    3.0690    2.4330 H         1 <0>         0.0530
     55 H23        -0.8549    2.8151    3.6950 H         1 <0>         0.0664
     56 H24        -0.9157    1.8669    2.1898 H         1 <0>         0.0590
     57 H25         2.3626    7.2512    1.2619 H         1 <0>         0.0955
     58 H26         2.7006    8.9947    1.1426 H         1 <0>         0.0755
     59 H27         1.4207    8.4088    2.2320 H         1 <0>         0.0745
     60 H28         1.7450   10.6160   -0.9209 H         1 <0>         0.4142
     61 H29         1.8156   12.8696   -1.5256 H         1 <0>         0.4014
     62 H30         0.5805   13.9055   -1.0522 H         1 <0>         0.4228
@<TRIPOS>BOND
     1    1    2 1
     2    1   34 1
     3    1   35 1
     4    1   36 1
     5    2    3 1
     6    2   37 1
     7    2   38 1
     8    3    4 1
     9    3    6 1
    10    4    5 1
    11    4   39 1
    12    4   40 1
    13    5   41 1
    14    5   42 1
    15    5   43 1
    16    6    7 2
    17    6    8 2
    18    6    9 1
    19    9   14 ar
    20    9   10 ar
    21   10   11 ar
    22   10   44 1
    23   11   12 ar
    24   11   45 1
    25   12   13 ar
    26   12   46 1
    27   13   14 ar
    28   13   15 1
    29   14   47 1
    30   15   19 1
    31   15   16 2
    32   16   17 1
    33   17   18 2
    34   18   19 1
    35   18   24 1
    36   19   20 1
    37   20   21 1
    38   20   48 1
    39   20   49 1
    40   21   22 1
    41   21   23 1
    42   21   50 1
    43   22   51 1
    44   22   52 1
    45   22   53 1
    46   23   54 1
    47   23   55 1
    48   23   56 1
    49   24   25 1
    50   25   26 1
    51   25   27 1
    52   25   28 1
    53   27   57 1
    54   27   58 1
    55   27   59 1
    56   28   29 2
    57   28   30 am
    58   30   31 am
    59   30   60 1
    60   31   32 2
    61   31   33 am
    62   33   61 1
    63   33   62 1
@<TRIPOS>MOLECULE
ZINC09015376
   55    58     0     0     0
SMALL
USER_CHARGES

@<TRIPOS>ATOM
      1 C1         -0.0187    1.5258    0.0104 C.3       1 <0>        -0.1527
      2 C2          0.0021   -0.0041    0.0020 C.3       1 <0>         0.0530
      3 O1         -1.3386   -0.4987    0.0122 O.3       1 <0>        -0.3038
      4 C3         -1.4984   -1.8492    0.0064 C.ar      1 <0>         0.1119
      5 C4         -0.3893   -2.6797   -0.0028 C.ar      1 <0>        -0.1650
      6 C5         -0.5535   -4.0523   -0.0082 C.ar      1 <0>        -0.0649
      7 C6         -1.8231   -4.5996   -0.0047 C.ar      1 <0>        -0.0954
      8 C7         -2.9339   -3.7768    0.0040 C.ar      1 <0>        -0.1695
      9 C8         -2.7762   -2.4001    0.0157 C.ar      1 <0>         0.0975
     10 O2         -3.8679   -1.5893    0.0304 O.3       1 <0>        -0.2971
     11 C9         -5.1479   -2.2246    0.0392 C.3       1 <0>         0.1364
     12 C10        -6.2294   -1.1753    0.0551 C.2       1 <0>         0.0260
     13 C11        -6.8084   -0.6253   -1.0355 C.2       1 <0>        -0.1875
     14 C12        -7.7577    0.3005   -0.5767 C.2       1 <0>        -0.1031
     15 C13        -7.7096    0.2685    0.7885 C.2       1 <0>        -0.0537
     16 O3         -6.7789   -0.6385    1.1519 O.3       1 <0>        -0.1408
     17 C14        -8.5283    1.0736    1.6978 C.2       1 <0>         0.5520
     18 O4         -9.3418    1.8588    1.2497 O.2       1 <0>        -0.4809
     19 O5         -8.3801    0.9441    3.0323 O.3       1 <0>        -0.3420
     20 C15        -9.2114    1.7604    3.8597 C.3       1 <0>         0.0330
     21 C16         0.6539   -4.9539   -0.0182 C.3       1 <0>         0.1249
     22 H1          1.5625   -4.3518   -0.0201 H         1 <0>         0.0969
     23 C17         0.6230   -5.8314   -1.2429 C.2       1 <0>        -0.2620
     24 C18         0.8505   -5.4959   -2.5708 C.2       1 <0>         0.1234
     25 N1          0.7157   -6.5820   -3.2942 N.2       1 <0>        -0.2632
     26 N2          0.3959   -7.6479   -2.4387 N.pl3     1 <0>        -0.4464
     27 H2          0.2403   -8.5675   -2.7054 H         1 <0>         0.4468
     28 C19         0.3444   -7.1686   -1.1856 C.2       1 <0>         0.2755
     29 O6          0.0771   -7.8116   -0.0218 O.3       1 <0>        -0.2312
     30 C20         0.3572   -7.1647    1.1278 C.2       1 <0>         0.4392
     31 C21         0.6352   -5.8432    1.2000 C.2       1 <0>        -0.2564
     32 C22         0.9227   -5.2667    2.4789 C.1       1 <0>         0.2698
     33 N3          1.1508   -4.8093    3.4934 N.1       1 <0>        -0.4366
     34 N4          0.3596   -7.8898    2.2934 N.pl3     1 <0>        -0.8310
     35 C23         1.1926   -4.1234   -3.0905 C.3       1 <0>        -0.0825
     36 H3          1.0039    1.9031    0.0027 H         1 <0>         0.0787
     37 H4         -0.5459    1.8868   -0.8726 H         1 <0>         0.0668
     38 H5         -0.5289    1.8773    0.9072 H         1 <0>         0.0660
     39 H6          0.5123   -0.3556   -0.8948 H         1 <0>         0.0633
     40 H7          0.5293   -0.3651    0.8851 H         1 <0>         0.0614
     41 H8          0.6036   -2.2546   -0.0062 H         1 <0>         0.1370
     42 H9         -1.9473   -5.6725   -0.0093 H         1 <0>         0.1192
     43 H10        -3.9246   -4.2069    0.0063 H         1 <0>         0.1342
     44 H11        -5.2534   -2.8416   -0.8531 H         1 <0>         0.1025
     45 H12        -5.2364   -2.8511    0.9267 H         1 <0>         0.0860
     46 H13        -6.5826   -0.8550   -2.0663 H         1 <0>         0.1669
     47 H14        -8.4012    0.9190   -1.1848 H         1 <0>         0.1702
     48 H15        -8.9914    1.5581    4.9079 H         1 <0>         0.1080
     49 H16        -9.0184    2.8113    3.6442 H         1 <0>         0.0657
     50 H17       -10.2585    1.5345    3.6580 H         1 <0>         0.0655
     51 H18         0.1634   -8.8395    2.2742 H         1 <0>         0.4115
     52 H19         0.5574   -7.4524    3.1363 H         1 <0>         0.4282
     53 H20         2.2752   -3.9963   -3.0960 H         1 <0>         0.0851
     54 H21         0.8087   -4.0128   -4.1046 H         1 <0>         0.0798
     55 H22         0.7415   -3.3682   -2.4468 H         1 <0>         0.0837
@<TRIPOS>BOND
     1    1    2 1
     2    1   36 1
     3    1   37 1
     4    1   38 1
     5    2    3 1
     6    2   39 1
     7    2   40 1
     8    3    4 1
     9    4    9 ar
    10    4    5 ar
    11    5    6 ar
    12    5   41 1
    13    6    7 ar
    14    6   21 1
    15    7    8 ar
    16    7   42 1
    17    8    9 ar
    18    8   43 1
    19    9   10 1
    20   10   11 1
    21   11   12 1
    22   11   44 1
    23   11   45 1
    24   12   16 1
    25   12   13 2
    26   13   14 1
    27   13   46 1
    28   14   15 2
    29   14   47 1
    30   15   16 1
    31   15   17 1
    32   17   18 2
    33   17   19 1
    34   19   20 1
    35   20   48 1
    36   20   49 1
    37   20   50 1
    38   21   22 1
    39   21   31 1
    40   21   23 1
    41   23   28 2
    42   23   24 1
    43   24   25 2
    44   24   35 1
    45   25   26 1
    46   26   27 1
    47   26   28 1
    48   28   29 1
    49   29   30 1
    50   30   31 2
    51   30   34 1
    52   31   32 1
    53   32   33 3
    54   34   51 1
    55   34   52 1
    56   35   53 1
    57   35   54 1
    58   35   55 1
@<TRIPOS>MOLECULE
ZINC13001069
   55    56     0     0     0
SMALL
USER_CHARGES

@<TRIPOS>ATOM
      1 C1         -0.0187    1.5258    0.0104 C.3       1 <0>        -0.1539
      2 C2          0.0021   -0.0041    0.0020 C.3       1 <0>         0.0511
      3 O1          0.6709   -0.4649   -1.1737 O.3       1 <0>        -0.3108
      4 C3          0.7766   -1.8081   -1.3359 C.ar      1 <0>         0.1628
      5 C4          0.2404   -2.6657   -0.3825 C.ar      1 <0>        -0.2198
      6 C5          0.3455   -4.0293   -0.5434 C.ar      1 <0>        -0.0126
      7 C6          0.9919   -4.5504   -1.6673 C.ar      1 <0>        -0.1809
      8 C7          1.5292   -3.6849   -2.6237 C.ar      1 <0>        -0.0418
      9 C8          1.4157   -2.3226   -2.4579 C.ar      1 <0>        -0.1604
     10 C9          1.1073   -6.0114   -1.8435 C.2       1 <0>         0.5706
     11 O2          0.6395   -6.7630   -1.0101 O.2       1 <0>        -0.5363
     12 N1          1.7311   -6.5121   -2.9282 N.am      1 <0>        -0.7187
     13 C10         1.8456   -7.9622   -3.1031 C.3       1 <0>         0.1120
     14 C11         2.5801   -8.2570   -4.3855 C.2       1 <0>         0.5128
     15 O3          2.9696   -7.3457   -5.0846 O.2       1 <0>        -0.5322
     16 N2          2.8042   -9.5335   -4.7556 N.am      1 <0>        -0.5168
     17 N3          3.4870   -9.8076   -5.9478 N.am      1 <0>        -0.5195
     18 C12         3.7111  -11.0840   -6.3178 C.2       1 <0>         0.4860
     19 O4          3.3216  -11.9954   -5.6188 O.2       1 <0>        -0.5161
     20 C13         4.4456  -11.3789   -7.6003 C.3       1 <0>         0.1056
     21 N4          4.5601  -12.8289   -7.7751 N.pl3     1 <0>        -0.9783
     22 C14         3.4654  -13.5808   -8.3936 C.3       1 <0>         0.0926
     23 S1          5.9269  -13.6180   -7.2737 S.o2      1 <0>         2.6923
     24 O5          6.0078  -14.8145   -8.0360 O.2       1 <0>        -0.9425
     25 O6          6.9699  -12.6532   -7.2572 O.2       1 <0>        -0.9504
     26 C15         5.6637  -14.1038   -5.6005 C.ar      1 <0>        -0.6661
     27 C16         6.0179  -13.2529   -4.5702 C.ar      1 <0>         0.0029
     28 C17         5.8118  -13.6333   -3.2575 C.ar      1 <0>        -0.1290
     29 C18         5.2508  -14.8660   -2.9748 C.ar      1 <0>         0.0207
     30 C19         4.8966  -15.7172   -4.0064 C.ar      1 <0>        -0.1302
     31 C20         5.0980  -15.3333   -5.3188 C.ar      1 <0>        -0.0023
     32 Cl1         4.9921  -15.3448   -1.3263 Cl        1 <0>        -0.0542
     33 H1          1.0039    1.9031    0.0027 H         1 <0>         0.0678
     34 H2         -0.5459    1.8868   -0.8726 H         1 <0>         0.0677
     35 H3         -0.5289    1.8773    0.9072 H         1 <0>         0.0811
     36 H4          0.5293   -0.3651    0.8851 H         1 <0>         0.0661
     37 H5         -1.0205   -0.3814    0.0098 H         1 <0>         0.0661
     38 H6         -0.2590   -2.2621    0.4859 H         1 <0>         0.1366
     39 H7         -0.0707   -4.6950    0.1982 H         1 <0>         0.1407
     40 H8          2.0295   -4.0839   -3.4938 H         1 <0>         0.1349
     41 H9          1.8271   -1.6530   -3.1987 H         1 <0>         0.1396
     42 H10         2.1043   -5.9125   -3.5931 H         1 <0>         0.4126
     43 H11         2.3956   -8.3871   -2.2634 H         1 <0>         0.1092
     44 H12         0.8495   -8.4028   -3.1453 H         1 <0>         0.1091
     45 H13         2.4926  -10.2623   -4.1965 H         1 <0>         0.4366
     46 H14         3.7985   -9.0787   -6.5069 H         1 <0>         0.4353
     47 H15         3.8956  -10.9540   -8.4399 H         1 <0>         0.1288
     48 H16         5.4416  -10.9383   -7.5580 H         1 <0>         0.1334
     49 H17         3.6171  -13.6223   -9.4722 H         1 <0>         0.0693
     50 H18         3.4466  -14.5932   -7.9902 H         1 <0>         0.0767
     51 H19         2.5181  -13.0864   -8.1787 H         1 <0>         0.0771
     52 H20         6.4561  -12.2908   -4.7910 H         1 <0>         0.1415
     53 H21         6.0888  -12.9686   -2.4526 H         1 <0>         0.1416
     54 H22         4.4590  -16.6797   -3.7863 H         1 <0>         0.1439
     55 H23         4.8172  -15.9957   -6.1243 H         1 <0>         0.1478
@<TRIPOS>BOND
     1    1    2 1
     2    1   33 1
     3    1   34 1
     4    1   35 1
     5    2    3 1
     6    2   36 1
     7    2   37 1
     8    3    4 1
     9    4    9 ar
    10    4    5 ar
    11    5    6 ar
    12    5   38 1
    13    6    7 ar
    14    6   39 1
    15    7    8 ar
    16    7   10 1
    17    8    9 ar
    18    8   40 1
    19    9   41 1
    20   10   11 2
    21   10   12 am
    22   12   13 1
    23   12   42 1
    24   13   14 1
    25   13   43 1
    26   13   44 1
    27   14   15 2
    28   14   16 am
    29   16   17 1
    30   16   45 1
    31   17   18 am
    32   17   46 1
    33   18   19 2
    34   18   20 1
    35   20   21 1
    36   20   47 1
    37   20   48 1
    38   21   22 1
    39   21   23 1
    40   22   49 1
    41   22   50 1
    42   22   51 1
    43   23   24 2
    44   23   25 2
    45   23   26 1
    46   26   31 ar
    47   26   27 ar
    48   27   28 ar
    49   27   52 1
    50   28   29 ar
    51   28   53 1
    52   29   30 ar
    53   29   32 1
    54   30   31 ar
    55   30   54 1
    56   31   55 1
@<TRIPOS>MOLECULE
ZINC59887082
   51    53     0     0     0
SMALL
USER_CHARGES

@<TRIPOS>ATOM
      1 C1         -1.2634    1.1895   -0.1463 C.3       1 <0>        -0.1217
      2 C2         -0.5831   -0.1532   -0.0727 C.ar      1 <0>        -0.1070
      3 C3          0.0167   -0.6917   -1.2035 C.ar      1 <0>         0.1588
      4 C4          0.6425   -1.9292   -1.1317 C.ar      1 <0>        -0.1219
      5 C5          0.6671   -2.6213    0.0635 C.ar      1 <0>        -0.0898
      6 C6          0.0691   -2.0838    1.1880 C.ar      1 <0>        -0.1224
      7 C7         -0.5504   -0.8477    1.1218 C.ar      1 <0>        -0.0178
      8 Cl1        -1.2930   -0.1726    2.5383 Cl        1 <0>        -0.0621
      9 N1         -0.0099    0.0112   -2.4131 N.am      1 <0>        -0.6617
     10 C8          0.0954   -0.6531   -3.5810 C.2       1 <0>         0.5379
     11 O1          0.1123   -1.8659   -3.5895 O.2       1 <0>        -0.4938
     12 C9          0.1920    0.1108   -4.8764 C.3       1 <0>        -0.1651
     13 S1          0.3217   -1.0567   -6.2587 S.3       1 <0>         0.1181
     14 C10         0.4252   -0.0227   -7.6817 C.2       1 <0>         0.2159
     15 N2          0.5298   -0.4481   -8.9452 N.2       1 <0>        -0.5185
     16 C11         0.5847    0.5866   -9.7578 C.2       1 <0>         0.5653
     17 N3          0.5146    1.7082   -9.0094 N.pl3     1 <0>        -0.5055
     18 N4          0.4065    1.2889   -7.6737 N.2       1 <0>        -0.3259
     19 N5          0.6949    0.5338  -11.1346 N.pl3     1 <0>        -0.5510
     20 N6          0.7578   -0.7054  -11.7853 N.2       1 <0>        -0.2158
     21 C12         0.8612   -0.7549  -13.0776 C.2       1 <0>         0.1539
     22 C13         0.9275   -2.0605  -13.7632 C.2       1 <0>        -0.2078
     23 C14         0.8839   -3.3309  -13.1498 C.2       1 <0>         0.0963
     24 N7          0.9680   -4.2373  -14.0860 N.2       1 <0>        -0.2960
     25 N8          1.0682   -3.5976  -15.3268 N.pl3     1 <0>        -0.3626
     26 C15         1.0375   -2.2653  -15.1213 C.2       1 <0>         0.0988
     27 C16         1.1821   -4.2621  -16.6274 C.3       1 <0>         0.1354
     28 C17         2.3723   -5.2234  -16.6064 C.3       1 <0>         0.0499
     29 O2          2.4834   -5.8716  -17.8750 O.3       1 <0>        -0.3908
     30 C18         3.5698   -6.7958  -17.9623 C.3       1 <0>         0.0335
     31 H1         -0.5424    1.9750    0.0802 H         1 <0>         0.0777
     32 H2         -1.6618    1.3404   -1.1496 H         1 <0>         0.0674
     33 H3         -2.0779    1.2243    0.5771 H         1 <0>         0.0806
     34 H4          1.1095   -2.3503   -2.0097 H         1 <0>         0.1534
     35 H5          1.1538   -3.5838    0.1194 H         1 <0>         0.1378
     36 H6          0.0894   -2.6272    2.1211 H         1 <0>         0.1355
     37 H7         -0.1041    0.9766   -2.4111 H         1 <0>         0.4157
     38 H8         -0.6989    0.7260   -5.0028 H         1 <0>         0.1266
     39 H9          1.0748    0.7498   -4.8564 H         1 <0>         0.1278
     40 H10         0.7285    1.3546  -11.6503 H         1 <0>         0.3980
     41 H11         0.8987    0.1590  -13.6517 H         1 <0>         0.1197
     42 H12         0.7967   -3.5204  -12.0901 H         1 <0>         0.1955
     43 H13         1.0911   -1.4997  -15.8812 H         1 <0>         0.1858
     44 H14         0.2682   -4.8199  -16.8317 H         1 <0>         0.0995
     45 H15         1.3329   -3.5141  -17.4057 H         1 <0>         0.1088
     46 H16         3.2862   -4.6656  -16.4021 H         1 <0>         0.0557
     47 H17         2.2215   -5.9714  -15.8281 H         1 <0>         0.0680
     48 H18         4.5086   -6.2707  -17.7861 H         1 <0>         0.0440
     49 H19         3.4439   -7.5765  -17.2121 H         1 <0>         0.0459
     50 H20         3.5857   -7.2452  -18.9552 H         1 <0>         0.0917
     51 H21         0.5316    2.6231   -9.3313 H         1 <0>         0.4384
@<TRIPOS>BOND
     1    1    2 1
     2    1   31 1
     3    1   32 1
     4    1   33 1
     5    2    7 ar
     6    2    3 ar
     7    3    4 ar
     8    3    9 1
     9    4    5 ar
    10    4   34 1
    11    5    6 ar
    12    5   35 1
    13    6    7 ar
    14    6   36 1
    15    7    8 1
    16    9   10 am
    17    9   37 1
    18   10   11 2
    19   10   12 1
    20   12   13 1
    21   12   38 1
    22   12   39 1
    23   13   14 1
    24   14   18 2
    25   14   15 1
    26   15   16 2
    27   16   17 1
    28   16   19 1
    29   17   18 1
    30   17   51 1
    31   19   20 1
    32   19   40 1
    33   20   21 2
    34   21   22 1
    35   21   41 1
    36   22   26 2
    37   22   23 1
    38   23   24 2
    39   23   42 1
    40   24   25 1
    41   25   26 1
    42   25   27 1
    43   26   43 1
    44   27   28 1
    45   27   44 1
    46   27   45 1
    47   28   29 1
    48   28   46 1
    49   28   47 1
    50   29   30 1
    51   30   48 1
    52   30   49 1
    53   30   50 1
@<TRIPOS>MOLECULE
ZINC03631371
   53    56     0     0     0
SMALL
USER_CHARGES
N-(3-chloro-4-methoxy-phenyl)-3-(2,4-dimethoxyphenyl)-4-oxo-2-thioxo-1H-quinazoline-7-carboxamide
@<TRIPOS>ATOM
      1 C1         -0.0138    7.4080   -0.0946 C.3       1 <0>         0.0244
      2 O1          0.1319    6.0080   -0.3408 O.3       1 <0>        -0.3174
      3 C2         -0.3841    5.1608    0.5887 C.ar      1 <0>         0.1665
      4 C3         -1.0174    5.6690    1.7140 C.ar      1 <0>        -0.2343
      5 C4         -1.5432    4.8109    2.6602 C.ar      1 <0>        -0.0140
      6 C5         -1.4388    3.4384    2.4874 C.ar      1 <0>         0.0942
      7 C6         -0.8030    2.9265    1.3586 C.ar      1 <0>         0.1959
      8 C7         -0.2721    3.7896    0.4142 C.ar      1 <0>        -0.2369
      9 O2         -0.6988    1.5819    1.1870 O.3       1 <0>        -0.3004
     10 C8         -0.0342    1.1282    0.0061 C.3       1 <0>         0.0248
     11 N1         -1.9735    2.5666    3.4487 N.am      1 <0>        -0.4792
     12 C9         -3.2524    2.1501    3.3263 C.2       1 <0>         0.5520
     13 O3         -3.9428    2.5208    2.3967 O.2       1 <0>        -0.5264
     14 C10        -3.7905    1.2336    4.3506 C.ar      1 <0>        -0.2150
     15 C11        -5.1000    0.7620    4.2925 C.ar      1 <0>        -0.0275
     16 C12        -5.5614   -0.0857    5.2612 C.ar      1 <0>        -0.1604
     17 C13        -4.7271   -0.4826    6.3104 C.ar      1 <0>        -0.0907
     18 C14        -3.4154   -0.0177    6.3804 C.ar      1 <0>        -0.0691
     19 C15        -2.9426    0.8416    5.4012 C.ar      1 <0>         0.1915
     20 N2         -1.6444    1.3301    5.4300 N.2       1 <0>        -0.5658
     21 C16        -1.2023    2.1588    4.4686 C.2       1 <0>         0.5136
     22 S1          0.4115    2.7241    4.5526 S.3       1 <0>        -0.7077
     23 C17        -5.2397   -1.4006    7.3522 C.2       1 <0>         0.5654
     24 O4         -4.5170   -1.7472    8.2659 O.2       1 <0>        -0.5150
     25 N3         -6.5080   -1.8522    7.2876 N.am      1 <0>        -0.6817
     26 C18        -6.9634   -2.7953    8.2168 C.ar      1 <0>         0.1347
     27 C19        -7.8747   -3.7688    7.8288 C.ar      1 <0>        -0.1029
     28 C20        -8.3194   -4.7024    8.7439 C.ar      1 <0>        -0.1787
     29 C21        -7.8651   -4.6615   10.0538 C.ar      1 <0>         0.1160
     30 C22        -6.9586   -3.6854   10.4444 C.ar      1 <0>        -0.0483
     31 C23        -6.5085   -2.7541    9.5281 C.ar      1 <0>        -0.0788
     32 Cl1        -6.3900   -3.6351   12.0839 Cl        1 <0>        -0.0535
     33 O5         -8.3075   -5.5781   10.9557 O.3       1 <0>        -0.3063
     34 C24        -9.2395   -6.5538   10.4850 C.3       1 <0>         0.0230
     35 H1          0.4445    7.9748   -0.9184 H         1 <0>         0.0980
     36 H2          0.4845    7.6678    0.8510 H         1 <0>         0.0583
     37 H3         -1.0826    7.6591   -0.0269 H         1 <0>         0.0561
     38 H4         -1.0995    6.7372    1.8501 H         1 <0>         0.1317
     39 H5         -2.0362    5.2087    3.5349 H         1 <0>         0.1287
     40 H6          0.2251    3.3950   -0.4595 H         1 <0>         0.1380
     41 H7         -0.0202    0.0284   -0.0072 H         1 <0>         0.0987
     42 H8          0.9981    1.5082   -0.0026 H         1 <0>         0.0593
     43 H9         -0.5689    1.4988   -0.8809 H         1 <0>         0.0548
     44 H10        -5.7491    1.0649    3.4842 H         1 <0>         0.1321
     45 H11        -6.5766   -0.4511    5.2153 H         1 <0>         0.1216
     46 H12        -2.7720   -0.3245    7.1918 H         1 <0>         0.1441
     47 H13        -7.1852   -1.4798    6.5049 H         1 <0>         0.4363
     48 H14        -8.2322   -3.7985    6.8101 H         1 <0>         0.1358
     49 H15        -9.0249   -5.4619    8.4408 H         1 <0>         0.1396
     50 H16        -5.8035   -1.9944    9.8317 H         1 <0>         0.1585
     51 H17        -9.5127   -7.2279   11.3102 H         1 <0>         0.1023
     52 H18        -8.7814   -7.1362    9.6721 H         1 <0>         0.0571
     53 H19       -10.1418   -6.0482   10.1105 H         1 <0>         0.0569
@<TRIPOS>BOND
     1    1    2 1
     2    1   35 1
     3    1   36 1
     4    1   37 1
     5    2    3 1
     6    3    8 ar
     7    3    4 ar
     8    4    5 ar
     9    4   38 1
    10    5    6 ar
    11    5   39 1
    12    6    7 ar
    13    6   11 1
    14    7    8 ar
    15    7    9 1
    16    8   40 1
    17    9   10 1
    18   10   41 1
    19   10   42 1
    20   10   43 1
    21   11   21 1
    22   11   12 am
    23   12   13 2
    24   12   14 1
    25   14   19 ar
    26   14   15 ar
    27   15   16 ar
    28   15   44 1
    29   16   17 ar
    30   16   45 1
    31   17   18 ar
    32   17   23 1
    33   18   19 ar
    34   18   46 1
    35   19   20 1
    36   20   21 2
    37   21   22 1
    38   23   24 2
    39   23   25 am
    40   25   26 1
    41   25   47 1
    42   26   31 ar
    43   26   27 ar
    44   27   28 ar
    45   27   48 1
    46   28   29 ar
    47   28   49 1
    48   29   30 ar
    49   29   33 1
    50   30   31 ar
    51   30   32 1
    52   31   50 1
    53   33   34 1
    54   34   51 1
    55   34   52 1
    56   34   53 1
@<TRIPOS>MOLECULE
ZINC30700256
   53    55     0     0     0
SMALL
USER_CHARGES
N-[2-[[acetyl(methyl)amino]methyl]phenyl]-4-chloro-3-[(4-fluorophenyl)sulfamoyl]benzamide
@<TRIPOS>ATOM
      1 C1         -0.4123    0.1032    3.9721 C.3       1 <0>        -0.1783
      2 C2         -1.1942   -0.5119    2.8401 C.2       1 <0>         0.5177
      3 O1         -0.6530   -0.7281    1.7765 O.2       1 <0>        -0.5358
      4 N1         -2.4949   -0.8216    3.0096 N.am      1 <0>        -0.6148
      5 C3         -3.1787   -0.4568    4.2528 C.3       1 <0>         0.0799
      6 C4         -3.2249   -1.5229    1.9507 C.3       1 <0>         0.1587
      7 C5         -3.9863   -0.5234    1.1186 C.ar      1 <0>        -0.1468
      8 C6         -5.3115   -0.2553    1.4011 C.ar      1 <0>        -0.0887
      9 C7         -6.0107    0.6619    0.6385 C.ar      1 <0>        -0.1466
     10 C8         -5.3859    1.3141   -0.4090 C.ar      1 <0>        -0.0946
     11 C9         -4.0600    1.0542   -0.6937 C.ar      1 <0>        -0.1316
     12 C10        -3.3562    0.1293    0.0673 C.ar      1 <0>         0.1818
     13 N2         -2.0144   -0.1395   -0.2212 N.am      1 <0>        -0.6681
     14 C11        -1.2198    0.8371   -0.7022 C.2       1 <0>         0.5746
     15 O2         -1.6864    1.9307   -0.9558 O.2       1 <0>        -0.5264
     16 C12         0.2183    0.5785   -0.9214 C.ar      1 <0>        -0.1550
     17 C13         0.7350   -0.7063   -0.7410 C.ar      1 <0>        -0.0151
     18 C14         2.0767   -0.9427   -0.9531 C.ar      1 <0>        -0.1500
     19 C15         2.9139    0.0937   -1.3328 C.ar      1 <0>         0.0821
     20 C16         2.4085    1.3712   -1.5073 C.ar      1 <0>        -0.6630
     21 C17         1.0670    1.6188   -1.3042 C.ar      1 <0>         0.0376
     22 S1          3.4813    2.6828   -1.9904 S.o2      1 <0>         2.5797
     23 O3          4.2012    2.2215   -3.1254 O.2       1 <0>        -0.9815
     24 O4          2.6920    3.8641   -2.0174 O.2       1 <0>        -1.0352
     25 N3          4.5893    2.8816   -0.7759 N.2       1 <0>        -1.0514
     26 C18         4.1650    3.2524    0.5037 C.ar      1 <0>         0.2221
     27 C19         3.2662    4.2991    0.6622 C.ar      1 <0>        -0.1872
     28 C20         2.8448    4.6606    1.9270 C.ar      1 <0>        -0.1250
     29 C21         3.3258    3.9870    3.0370 C.ar      1 <0>         0.0130
     30 C22         4.2261    2.9465    2.8816 C.ar      1 <0>        -0.1327
     31 C23         4.6462    2.5782    1.6185 C.ar      1 <0>        -0.1328
     32 F1          2.9159    4.3453    4.2734 F         1 <0>        -0.1633
     33 Cl1         4.6034   -0.2104   -1.5915 Cl        1 <0>        -0.0307
     34 H1         -1.0671    0.2220    4.8480 H         1 <0>         0.0767
     35 H2         -0.0319    1.0878    3.6625 H         1 <0>         0.0979
     36 H3          0.4328   -0.5512    4.2321 H         1 <0>         0.0964
     37 H4         -4.2261   -0.7898    4.2065 H         1 <0>         0.0765
     38 H5         -3.1464    0.6351    4.3822 H         1 <0>         0.0621
     39 H6         -2.6770   -0.9418    5.1031 H         1 <0>         0.0641
     40 H7         -2.5126   -2.0652    1.3116 H         1 <0>         0.0868
     41 H8         -3.9296   -2.2368    2.4020 H         1 <0>         0.0863
     42 H9         -5.8020   -0.7624    2.2189 H         1 <0>         0.1207
     43 H10        -7.0467    0.8698    0.8614 H         1 <0>         0.1199
     44 H11        -5.9347    2.0303   -1.0026 H         1 <0>         0.1230
     45 H12        -3.5717    1.5666   -1.5094 H         1 <0>         0.1429
     46 H13        -1.6076   -1.1480   -0.0555 H         1 <0>         0.4353
     47 H14         0.0841   -1.5140   -0.4406 H         1 <0>         0.1314
     48 H15         2.4766   -1.9369   -0.8185 H         1 <0>         0.1375
     49 H16         0.6740    2.6154   -1.4405 H         1 <0>         0.1520
     50 H17         2.8939    4.8275   -0.2030 H         1 <0>         0.1460
     51 H18         2.1424    5.4716    2.0504 H         1 <0>         0.1150
     52 H19         4.5997    2.4223    3.7488 H         1 <0>         0.1156
     53 H20         5.3481    1.7664    1.4978 H         1 <0>         0.1215
@<TRIPOS>BOND
     1    1    2 1
     2    1   34 1
     3    1   35 1
     4    1   36 1
     5    2    3 2
     6    2    4 am
     7    4    5 1
     8    4    6 1
     9    5   37 1
    10    5   38 1
    11    5   39 1
    12    6    7 1
    13    6   40 1
    14    6   41 1
    15    7   12 ar
    16    7    8 ar
    17    8    9 ar
    18    8   42 1
    19    9   10 ar
    20    9   43 1
    21   10   11 ar
    22   10   44 1
    23   11   12 ar
    24   11   45 1
    25   12   13 1
    26   13   14 am
    27   13   46 1
    28   14   15 2
    29   14   16 1
    30   16   21 ar
    31   16   17 ar
    32   17   18 ar
    33   17   47 1
    34   18   19 ar
    35   18   48 1
    36   19   20 ar
    37   19   33 1
    38   20   21 ar
    39   20   22 1
    40   21   49 1
    41   22   23 2
    42   22   24 2
    43   22   25 1
    44   25   26 1
    45   26   31 ar
    46   26   27 ar
    47   27   28 ar
    48   27   50 1
    49   28   29 ar
    50   28   51 1
    51   29   30 ar
    52   29   32 1
    53   30   31 ar
    54   30   52 1
    55   31   53 1
@<TRIPOS>MOLECULE
ZINC36061172
   63    66     0     0     0
SMALL
USER_CHARGES

@<TRIPOS>ATOM
      1 C1         -0.3804    1.2242    0.2875 C.3       1 <0>        -0.1082
      2 C2         -0.2481   -0.2664    0.1101 C.ar      1 <0>        -0.0857
      3 C3          0.4687   -0.7747   -0.9573 C.ar      1 <0>        -0.1308
      4 C4          0.5900   -2.1419   -1.1199 C.ar      1 <0>        -0.0855
      5 C5         -0.0051   -3.0012   -0.2149 C.ar      1 <0>        -0.0773
      6 C6         -0.7209   -2.4931    0.8527 C.ar      1 <0>        -0.0353
      7 C7         -0.8386   -1.1254    1.0178 C.ar      1 <0>        -0.1301
      8 C8         -1.3699   -3.4297    1.8388 C.3       1 <0>        -0.1260
      9 C9          0.1264   -4.4919   -0.3928 C.3       1 <0>         0.2522
     10 H1         -0.5302   -4.9724    0.3325 H         1 <0>         0.0839
     11 C10         1.5503   -4.8769   -0.0585 C.2       1 <0>        -0.3897
     12 C11         2.2903   -5.5173   -1.0338 C.2       1 <0>         0.3016
     13 N1          1.7577   -5.7781   -2.2165 N.2       1 <0>        -0.5971
     14 C12         0.5270   -5.4703   -2.5708 C.2       1 <0>         0.3198
     15 N2         -0.3652   -4.8357   -1.7536 N.pl3     1 <0>        -0.5119
     16 C13        -1.6189   -4.5816   -2.2732 C.2       1 <0>         0.2342
     17 C14        -1.8640   -4.9780   -3.5415 C.2       1 <0>        -0.3057
     18 S1         -0.3117   -5.7161   -4.0037 S.3       1 <0>         0.1433
     19 C15        -2.6506   -3.9042   -1.4747 C.2       1 <0>        -0.4686
     20 C16        -3.9064   -3.7960   -1.9494 C.2       1 <0>         0.5012
     21 O1         -4.2529   -4.4248   -3.0989 O.3       1 <0>        -0.7036
     22 N3         -4.8435   -3.0423   -1.2629 N.pl3     1 <0>        -0.7517
     23 C17        -6.2094   -2.9247   -1.7792 C.3       1 <0>         0.2188
     24 C18        -7.0232   -2.0573   -0.8538 C.2       1 <0>        -0.0144
     25 C19        -7.1605   -0.7222   -0.9448 C.2       1 <0>        -0.2007
     26 C20        -8.0036   -0.3238    0.1179 C.2       1 <0>        -0.2162
     27 C21        -8.3311   -1.4391    0.7947 C.2       1 <0>        -0.0460
     28 O2         -7.7391   -2.4867    0.1982 O.3       1 <0>        -0.1727
     29 C22         3.7140   -5.9210   -0.7487 C.3       1 <0>        -0.1156
     30 C23         2.1004   -4.5933    1.1975 C.2       1 <0>         0.5390
     31 O3          3.2688   -4.8557    1.4243 O.2       1 <0>        -0.5509
     32 O4          1.3358   -4.0287    2.1582 O.3       1 <0>        -0.3415
     33 C24         1.9893   -3.6604    3.3744 C.3       1 <0>         0.0703
     34 C25         0.9503   -3.1631    4.3814 C.3       1 <0>         0.0607
     35 O5          0.0753   -4.2370    4.7326 O.3       1 <0>        -0.3798
     36 C26        -0.9383   -3.8769    5.6733 C.3       1 <0>         0.0303
     37 H2          0.4453    1.5924    0.8964 H         1 <0>         0.0635
     38 H3         -0.3569    1.7097   -0.6882 H         1 <0>         0.0617
     39 H4         -1.3252    1.4488    0.7824 H         1 <0>         0.0617
     40 H5          0.9335   -0.1035   -1.6642 H         1 <0>         0.1125
     41 H6          1.1493   -2.5389   -1.9541 H         1 <0>         0.1039
     42 H7         -1.3948   -0.7284    1.8541 H         1 <0>         0.1129
     43 H8         -0.6849   -3.6187    2.6654 H         1 <0>         0.0967
     44 H9         -2.2849   -2.9775    2.2214 H         1 <0>         0.0529
     45 H10        -1.6093   -4.3704    1.3430 H         1 <0>         0.0674
     46 H11        -2.7677   -4.8745   -4.1238 H         1 <0>         0.2321
     47 H12        -2.4016   -3.4932   -0.5075 H         1 <0>         0.0977
     48 H13        -4.5955   -2.5923   -0.4402 H         1 <0>         0.3876
     49 H14        -6.1852   -2.4745   -2.7716 H         1 <0>         0.0844
     50 H15        -6.6613   -3.9147   -1.8403 H         1 <0>         0.0684
     51 H16        -6.7122   -0.0783   -1.6869 H         1 <0>         0.1477
     52 H17        -8.3230    0.6830    0.3432 H         1 <0>         0.1457
     53 H18        -8.9657   -1.4849    1.6674 H         1 <0>         0.1995
     54 H19         3.7231   -6.8825   -0.2353 H         1 <0>         0.0789
     55 H20         4.2627   -6.0048   -1.6868 H         1 <0>         0.0637
     56 H21         4.1859   -5.1678   -0.1178 H         1 <0>         0.1120
     57 H22         2.5077   -4.5268    3.7851 H         1 <0>         0.0713
     58 H23         2.7097   -2.8673    3.1740 H         1 <0>         0.0740
     59 H24         1.4561   -2.7993    5.2757 H         1 <0>         0.0650
     60 H25         0.3716   -2.3536    3.9365 H         1 <0>         0.0621
     61 H26        -1.5562   -3.0822    5.2552 H         1 <0>         0.0424
     62 H27        -1.5602   -4.7459    5.8878 H         1 <0>         0.0858
     63 H28        -0.4716   -3.5278    6.5944 H         1 <0>         0.0382
@<TRIPOS>BOND
     1    1    2 1
     2    1   37 1
     3    1   38 1
     4    1   39 1
     5    2    7 ar
     6    2    3 ar
     7    3    4 ar
     8    3   40 1
     9    4    5 ar
    10    4   41 1
    11    5    6 ar
    12    5    9 1
    13    6    7 ar
    14    6    8 1
    15    7   42 1
    16    8   43 1
    17    8   44 1
    18    8   45 1
    19    9   10 1
    20    9   15 1
    21    9   11 1
    22   11   12 2
    23   11   30 1
    24   12   13 1
    25   12   29 1
    26   13   14 2
    27   14   18 1
    28   14   15 1
    29   15   16 1
    30   16   17 2
    31   16   19 1
    32   17   18 1
    33   17   46 1
    34   19   20 2
    35   19   47 1
    36   20   21 1
    37   20   22 1
    38   22   23 1
    39   22   48 1
    40   23   24 1
    41   23   49 1
    42   23   50 1
    43   24   28 1
    44   24   25 2
    45   25   26 1
    46   25   51 1
    47   26   27 2
    48   26   52 1
    49   27   28 1
    50   27   53 1
    51   29   54 1
    52   29   55 1
    53   29   56 1
    54   30   31 2
    55   30   32 1
    56   32   33 1
    57   33   34 1
    58   33   57 1
    59   33   58 1
    60   34   35 1
    61   34   59 1
    62   34   60 1
    63   35   36 1
    64   36   61 1
    65   36   62 1
    66   36   63 1
@<TRIPOS>MOLECULE
ZINC40103062
   61    64     0     0     0
SMALL
USER_CHARGES

@<TRIPOS>ATOM
      1 C1          0.0856    1.4587    0.2257 C.3       1 <0>        -0.1511
      2 C2          0.0278   -0.0679    0.1410 C.3       1 <0>         0.0559
      3 O1          0.7255   -0.5070   -1.0262 O.3       1 <0>        -0.3187
      4 C3          0.7692   -1.8464   -1.2516 C.ar      1 <0>         0.1208
      5 C4          0.1482   -2.7200   -0.3704 C.ar      1 <0>        -0.2149
      6 C5          0.1936   -4.0809   -0.6019 C.ar      1 <0>        -0.0887
      7 C6          0.8573   -4.5731   -1.7108 C.ar      1 <0>        -0.1151
      8 C7          1.4772   -3.7048   -2.5900 C.ar      1 <0>        -0.0357
      9 C8          1.4297   -2.3423   -2.3660 C.ar      1 <0>        -0.1461
     10 C9          2.2000   -4.2446   -3.7972 C.3       1 <0>         0.2637
     11 H1          2.7662   -3.4489   -4.2813 H         1 <0>         0.0705
     12 C10         1.2112   -4.8441   -4.7696 C.2       1 <0>        -0.5050
     13 C11         1.5350   -6.1520   -4.8994 C.2       1 <0>         0.2674
     14 C12         2.7063   -6.4490   -4.0477 C.2       1 <0>         0.5168
     15 O2          3.2369   -7.5372   -3.9465 O.2       1 <0>        -0.5215
     16 N1          3.0992   -5.3348   -3.4013 N.am      1 <0>        -0.6099
     17 C13         4.2237   -5.2289   -2.4683 C.3       1 <0>         0.1387
     18 C14         3.7363   -5.5188   -1.0472 C.3       1 <0>         0.0493
     19 O3          3.3001   -6.8768   -0.9610 O.3       1 <0>        -0.5520
     20 O4          0.8895   -7.0454   -5.6838 O.3       1 <0>        -0.6535
     21 C15         0.1127   -4.1445   -5.4424 C.2       1 <0>         0.5043
     22 O5         -1.0407   -4.4367   -5.1885 O.2       1 <0>        -0.4687
     23 C16         0.4065   -3.0836   -6.4297 C.ar      1 <0>        -0.0962
     24 C17         1.7252   -2.8288   -6.8135 C.ar      1 <0>        -0.0978
     25 C18         1.9953   -1.8387   -7.7351 C.ar      1 <0>        -0.0983
     26 C19         0.9641   -1.0961   -8.2813 C.ar      1 <0>        -0.1950
     27 C20        -0.3499   -1.3417   -7.9056 C.ar      1 <0>         0.1086
     28 C21        -0.6333   -2.3370   -6.9857 C.ar      1 <0>        -0.1032
     29 O6         -1.3589   -0.6085   -8.4454 O.3       1 <0>        -0.3093
     30 C22        -0.9949    0.3977   -9.3926 C.3       1 <0>         0.1004
     31 C23        -2.2353    1.1019   -9.8790 C.ar      1 <0>        -0.0873
     32 C24        -2.9118    0.6242  -10.9859 C.ar      1 <0>        -0.0814
     33 C25        -4.0495    1.2696  -11.4326 C.ar      1 <0>        -0.1137
     34 C26        -4.5111    2.3940  -10.7717 C.ar      1 <0>        -0.0271
     35 C27        -3.8337    2.8716   -9.6639 C.ar      1 <0>        -0.1142
     36 C28        -2.6993    2.2220   -9.2149 C.ar      1 <0>        -0.0818
     37 Cl1        -5.9397    3.2055  -11.3324 Cl        1 <0>        -0.0708
     38 H2          1.1255    1.7803    0.2815 H         1 <0>         0.0645
     39 H3         -0.3810    1.8896   -0.6601 H         1 <0>         0.0655
     40 H4         -0.4466    1.7936    1.1161 H         1 <0>         0.0748
     41 H5          0.4943   -0.4989    1.0269 H         1 <0>         0.0580
     42 H6         -1.0122   -0.3896    0.0852 H         1 <0>         0.0592
     43 H7         -0.3700   -2.3362    0.4960 H         1 <0>         0.1196
     44 H8         -0.2893   -4.7613    0.0839 H         1 <0>         0.1189
     45 H9          0.8917   -5.6375   -1.8901 H         1 <0>         0.1236
     46 H10         1.9103   -1.6641   -3.0555 H         1 <0>         0.1266
     47 H11         4.9928   -5.9507   -2.7429 H         1 <0>         0.0837
     48 H12         4.6383   -4.2218   -2.5118 H         1 <0>         0.0866
     49 H13         4.5515   -5.3535   -0.3428 H         1 <0>         0.0435
     50 H14         2.9066   -4.8546   -0.8051 H         1 <0>         0.0571
     51 H15         2.9769   -7.1313   -0.0858 H         1 <0>         0.3683
     52 H16         2.5328   -3.4065   -6.3887 H         1 <0>         0.1368
     53 H17         3.0153   -1.6424   -8.0308 H         1 <0>         0.1255
     54 H18         1.1817   -0.3222   -9.0024 H         1 <0>         0.1238
     55 H19        -1.6553   -2.5322   -6.6963 H         1 <0>         0.1361
     56 H20        -0.3297    1.1194   -8.9184 H         1 <0>         0.0725
     57 H21        -0.4853   -0.0658  -10.2373 H         1 <0>         0.0727
     58 H22        -2.5511   -0.2533  -11.5020 H         1 <0>         0.1360
     59 H23        -4.5777    0.8966  -12.2976 H         1 <0>         0.1363
     60 H24        -4.1934    3.7494   -9.1478 H         1 <0>         0.1359
     61 H25        -2.1731    2.5919   -8.3473 H         1 <0>         0.1355
@<TRIPOS>BOND
     1    1    2 1
     2    1   38 1
     3    1   39 1
     4    1   40 1
     5    2    3 1
     6    2   41 1
     7    2   42 1
     8    3    4 1
     9    4    9 ar
    10    4    5 ar
    11    5    6 ar
    12    5   43 1
    13    6    7 ar
    14    6   44 1
    15    7    8 ar
    16    7   45 1
    17    8    9 ar
    18    8   10 1
    19    9   46 1
    20   10   11 1
    21   10   16 1
    22   10   12 1
    23   12   13 2
    24   12   21 1
    25   13   14 1
    26   13   20 1
    27   14   15 2
    28   14   16 am
    29   16   17 1
    30   17   18 1
    31   17   47 1
    32   17   48 1
    33   18   19 1
    34   18   49 1
    35   18   50 1
    36   19   51 1
    37   21   22 2
    38   21   23 1
    39   23   28 ar
    40   23   24 ar
    41   24   25 ar
    42   24   52 1
    43   25   26 ar
    44   25   53 1
    45   26   27 ar
    46   26   54 1
    47   27   28 ar
    48   27   29 1
    49   28   55 1
    50   29   30 1
    51   30   31 1
    52   30   56 1
    53   30   57 1
    54   31   36 ar
    55   31   32 ar
    56   32   33 ar
    57   32   58 1
    58   33   34 ar
    59   33   59 1
    60   34   35 ar
    61   34   37 1
    62   35   36 ar
    63   35   60 1
    64   36   61 1
@<TRIPOS>MOLECULE
ZINC49823700
   51    53     0     0     0
SMALL
USER_CHARGES

@<TRIPOS>ATOM
      1 C1         -1.2634    1.1895   -0.1463 C.3       1 <0>        -0.1223
      2 C2         -0.5831   -0.1532   -0.0727 C.ar      1 <0>        -0.1081
      3 C3          0.0167   -0.6917   -1.2035 C.ar      1 <0>         0.1654
      4 C4          0.6425   -1.9292   -1.1317 C.ar      1 <0>        -0.1228
      5 C5          0.6671   -2.6213    0.0635 C.ar      1 <0>        -0.0909
      6 C6          0.0691   -2.0838    1.1880 C.ar      1 <0>        -0.1271
      7 C7         -0.5504   -0.8477    1.1218 C.ar      1 <0>        -0.0174
      8 Cl1        -1.2930   -0.1726    2.5383 Cl        1 <0>        -0.0669
      9 N1         -0.0099    0.0112   -2.4131 N.am      1 <0>        -0.6642
     10 C8          0.0954   -0.6531   -3.5810 C.2       1 <0>         0.5377
     11 O1          0.1123   -1.8659   -3.5895 O.2       1 <0>        -0.4982
     12 C9          0.1920    0.1108   -4.8764 C.3       1 <0>        -0.1574
     13 S1          0.3217   -1.0567   -6.2587 S.3       1 <0>         0.1020
     14 C10         0.4192   -0.0826   -7.5993 C.2       1 <0>         0.1139
     15 C11         0.5340   -0.7109   -8.9632 C.3       1 <0>         0.0308
     16 C12        -0.2141    0.1478   -9.9863 C.3       1 <0>         0.0455
     17 H1          0.0676   -0.1570  -10.9941 H         1 <0>         0.1041
     18 C13         0.1552    1.5957   -9.7745 C.2       1 <0>        -0.4755
     19 C14         0.4267    2.0495   -8.5012 C.2       1 <0>         0.4593
     20 N2          0.3897    1.2148   -7.4528 N.2       1 <0>        -0.5037
     21 O2          0.7287    3.3531   -8.3076 O.3       1 <0>        -0.6028
     22 C15         0.2222    2.4729  -10.8646 C.2       1 <0>         0.5149
     23 O3          0.5208    3.6411  -10.6892 O.2       1 <0>        -0.5414
     24 O4         -0.0442    2.0235  -12.1106 O.3       1 <0>        -0.3742
     25 C16         0.0432    2.9728  -13.1751 C.3       1 <0>         0.0467
     26 C17        -1.6995   -0.0283   -9.8027 C.ar      1 <0>        -0.0477
     27 C18        -2.2917    0.3054   -8.5990 C.ar      1 <0>        -0.1004
     28 C19        -3.6541    0.1440   -8.4305 C.ar      1 <0>        -0.1147
     29 C20        -4.4254   -0.3512   -9.4657 C.ar      1 <0>        -0.1194
     30 C21        -3.8345   -0.6851  -10.6695 C.ar      1 <0>        -0.1150
     31 C22        -2.4716   -0.5184  -10.8407 C.ar      1 <0>        -0.0270
     32 Cl2        -1.7296   -0.9314  -12.3548 Cl        1 <0>        -0.0672
     33 C23         1.9531   -0.8021   -9.3435 C.1       1 <0>         0.2299
     34 N3          3.0483   -0.8724   -9.6369 N.1       1 <0>        -0.4203
     35 H2         -0.5424    1.9750    0.0802 H         1 <0>         0.0776
     36 H3         -1.6618    1.3404   -1.1496 H         1 <0>         0.0698
     37 H4         -2.0779    1.2243    0.5771 H         1 <0>         0.0790
     38 H5          1.1095   -2.3503   -2.0097 H         1 <0>         0.1544
     39 H6          1.1538   -3.5838    0.1194 H         1 <0>         0.1359
     40 H7          0.0894   -2.6272    2.1211 H         1 <0>         0.1329
     41 H8         -0.1041    0.9766   -2.4111 H         1 <0>         0.4174
     42 H9         -0.6989    0.7260   -5.0028 H         1 <0>         0.1323
     43 H10         1.0748    0.7498   -4.8564 H         1 <0>         0.1335
     44 H11         1.0546    3.3769  -13.2195 H         1 <0>         0.0422
     45 H12        -0.1941    2.4828  -14.1194 H         1 <0>         0.0788
     46 H13        -0.6643    3.7830  -12.9984 H         1 <0>         0.0430
     47 H14        -1.6897    0.6919   -7.7900 H         1 <0>         0.1311
     48 H15        -4.1162    0.4045   -7.4898 H         1 <0>         0.1226
     49 H16        -5.4898   -0.4774   -9.3333 H         1 <0>         0.1249
     50 H17        -4.4371   -1.0722  -11.4779 H         1 <0>         0.1275
     51 H18         0.0992   -1.7102   -8.9405 H         1 <0>         0.1313
@<TRIPOS>BOND
     1    1    2 1
     2    1   35 1
     3    1   36 1
     4    1   37 1
     5    2    7 ar
     6    2    3 ar
     7    3    4 ar
     8    3    9 1
     9    4    5 ar
    10    4   38 1
    11    5    6 ar
    12    5   39 1
    13    6    7 ar
    14    6   40 1
    15    7    8 1
    16    9   10 am
    17    9   41 1
    18   10   11 2
    19   10   12 1
    20   12   13 1
    21   12   42 1
    22   12   43 1
    23   13   14 1
    24   14   20 2
    25   14   15 1
    26   15   16 1
    27   15   33 1
    28   15   51 1
    29   16   17 1
    30   16   18 1
    31   16   26 1
    32   18   19 2
    33   18   22 1
    34   19   20 1
    35   19   21 1
    36   22   23 2
    37   22   24 1
    38   24   25 1
    39   25   44 1
    40   25   45 1
    41   25   46 1
    42   26   31 ar
    43   26   27 ar
    44   27   28 ar
    45   27   47 1
    46   28   29 ar
    47   28   48 1
    48   29   30 ar
    49   29   49 1
    50   30   31 ar
    51   30   50 1
    52   31   32 1
    53   33   34 3
@<TRIPOS>MOLECULE
ZINC06047617
   38    39     0     0     0
SMALL
USER_CHARGES
6-[(4-methyl-2-nitro-phenyl)carbamoylmethyl]-5-oxo-thiomorpholine-3-carboxylic acid
@<TRIPOS>ATOM
      1 C1          9.8582   -0.3404   -5.3327 C.3       1 <0>        -0.1117
      2 C2          8.4711   -0.6991   -4.8655 C.ar      1 <0>        -0.1094
      3 C3          7.7117    0.2313   -4.1796 C.ar      1 <0>        -0.0413
      4 C4          6.4405   -0.0945   -3.7498 C.ar      1 <0>        -0.1342
      5 C5          5.9246   -1.3581   -4.0070 C.ar      1 <0>         0.2291
      6 C6          6.6917   -2.2919   -4.6909 C.ar      1 <0>        -0.0829
      7 C7          7.9604   -1.9579   -5.1231 C.ar      1 <0>        -0.0385
      8 N1          6.1481   -3.6417   -4.9617 N.pl3     1 <0>         0.0430
      9 O1          6.8524   -4.4889   -5.4812 O.2       1 <0>        -0.1490
     10 O2          4.9966   -3.9053   -4.6651 O.3       1 <0>        -0.1871
     11 N2          4.6369   -1.6914   -3.5729 N.am      1 <0>        -0.6684
     12 C8          4.0951   -1.0521   -2.5173 C.2       1 <0>         0.5165
     13 O3          4.7588   -0.2605   -1.8818 O.2       1 <0>        -0.4872
     14 C9          2.6646   -1.3209   -2.1267 C.3       1 <0>        -0.1084
     15 C10         2.3015   -0.4732   -0.9058 C.3       1 <0>        -0.0542
     16 H1          3.0161   -0.6619   -0.1047 H         1 <0>         0.1273
     17 C11         0.9183   -0.8284   -0.4401 C.2       1 <0>         0.5216
     18 O4          0.6176   -2.0031   -0.4636 O.2       1 <0>        -0.5629
     19 N3          0.0004    0.0118   -0.0084 N.am      1 <0>        -0.6750
     20 C12        -0.0062    1.4569    0.0105 C.3       1 <0>         0.0895
     21 H2         -0.5401    1.8185   -0.8683 H         1 <0>         0.0925
     22 C13         1.4030    2.0491    0.0112 C.3       1 <0>        -0.0722
     23 S1          2.3368    1.2893   -1.3553 S.3       1 <0>        -0.2336
     24 C14        -0.7322    1.9249    1.2454 C.2       1 <0>         0.4604
     25 O5         -0.8721    1.1769    2.1839 O.co2     1 <0>        -0.6191
     26 H3         10.5799   -0.5933   -4.5561 H         1 <0>         0.0769
     27 H4         10.0912   -0.8970   -6.2405 H         1 <0>         0.0720
     28 H5          9.9067    0.7287   -5.5395 H         1 <0>         0.0744
     29 H6          8.1136    1.2136   -3.9797 H         1 <0>         0.1466
     30 H7          5.8482    0.6324   -3.2139 H         1 <0>         0.1727
     31 H8          8.5560   -2.6824   -5.6587 H         1 <0>         0.1550
     32 H9          4.1341   -2.3825   -4.0316 H         1 <0>         0.4287
     33 H10         2.5466   -2.3769   -1.8839 H         1 <0>         0.1309
     34 H11         2.0068   -1.0631   -2.9566 H         1 <0>         0.1155
     35 H12        -0.7968   -0.4051    0.3544 H         1 <0>         0.4071
     36 H13         1.3489    3.1279   -0.1350 H         1 <0>         0.1303
     37 H14         1.8940    1.8297    0.9593 H         1 <0>         0.0912
     38 O6         -1.2235    3.1728    1.3026 O.co2     1 <0>        -0.7458
@<TRIPOS>BOND
     1    1    2 1
     2    1   26 1
     3    1   27 1
     4    1   28 1
     5    2    7 ar
     6    2    3 ar
     7    3    4 ar
     8    3   29 1
     9    4    5 ar
    10    4   30 1
    11    5    6 ar
    12    5   11 1
    13    6    7 ar
    14    6    8 1
    15    7   31 1
    16    8    9 2
    17    8   10 1
    18   11   12 am
    19   11   32 1
    20   12   13 2
    21   12   14 1
    22   14   15 1
    23   14   33 1
    24   14   34 1
    25   15   16 1
    26   15   23 1
    27   15   17 1
    28   17   18 2
    29   17   19 am
    30   19   20 1
    31   19   35 1
    32   20   21 1
    33   20   22 1
    34   20   24 1
    35   22   23 1
    36   22   36 1
    37   22   37 1
    38   24   25 2
    39   24   38 1
@<TRIPOS>MOLECULE
ZINC13244676
   56    58     0     0     0
SMALL
USER_CHARGES
(2R)-2-[[2-(3,4-dihydro-2H-1,5-benzodioxepin-7-ylamino)-2-oxo-ethyl]carbamoylamino]-4-oxo-4-pyrrolidin-1-yl-butanoic acid
@<TRIPOS>ATOM
      1 C1         -8.2016   -3.5215    3.8929 C.ar      1 <0>        -0.1365
      2 C2         -9.3085   -4.3163    3.6558 C.ar      1 <0>        -0.0967
      3 C3         -9.3991   -5.0357    2.4765 C.ar      1 <0>         0.0465
      4 C4         -8.3854   -4.9573    1.5315 C.ar      1 <0>         0.0858
      5 C5         -7.2791   -4.1594    1.7640 C.ar      1 <0>        -0.1183
      6 C6         -7.1888   -3.4371    2.9475 C.ar      1 <0>         0.1586
      7 N1         -6.0715   -2.6272    3.1895 N.am      1 <0>        -0.6711
      8 C7         -5.4784   -1.9751    2.1699 C.2       1 <0>         0.5128
      9 O1         -5.8587   -2.1545    1.0322 O.2       1 <0>        -0.5108
     10 C8         -4.3427   -1.0230    2.4434 C.3       1 <0>         0.1286
     11 N2         -3.8738   -0.4467    1.1808 N.am      1 <0>        -0.7440
     12 C9         -2.8572    0.4382    1.1804 C.2       1 <0>         0.7229
     13 O2         -2.3292    0.7581    2.2279 O.2       1 <0>        -0.5938
     14 N3         -2.4258    0.9685    0.0188 N.am      1 <0>        -0.7035
     15 C10        -1.3208    1.9303    0.0184 C.3       1 <0>         0.1389
     16 H1         -1.3763    2.5479    0.9148 H         1 <0>         0.0962
     17 C11        -1.4205    2.8210   -1.2216 C.3       1 <0>        -0.1261
     18 C12        -2.6740    3.6539   -1.1424 C.2       1 <0>         0.5275
     19 O3         -3.4146    3.5457   -0.1881 O.2       1 <0>        -0.5260
     20 N4         -2.9719    4.5190   -2.1320 N.am      1 <0>        -0.6272
     21 C13        -2.1632    4.7539   -3.3371 C.3       1 <0>         0.0974
     22 C14        -2.8806    5.8400   -4.1659 C.3       1 <0>        -0.1310
     23 C15        -3.7502    6.5657   -3.1054 C.3       1 <0>        -0.1341
     24 C16        -4.1595    5.3910   -2.1823 C.3       1 <0>         0.1050
     25 C17        -0.0091    1.1885   -0.0002 C.2       1 <0>         0.4590
     26 O4          0.0015   -0.0196   -0.0118 O.co2     1 <0>        -0.6233
     27 O5         -8.4874   -5.6708    0.3726 O.3       1 <0>        -0.3159
     28 C18        -8.3985   -7.0910    0.5034 C.3       1 <0>         0.0596
     29 C19        -9.7525   -7.6860    0.8570 C.3       1 <0>        -0.1876
     30 C20       -10.2440   -7.2346    2.2234 C.3       1 <0>         0.0596
     31 O6        -10.4860   -5.8264    2.2352 O.3       1 <0>        -0.3186
     32 H2         -8.1269   -2.9626    4.8140 H         1 <0>         0.1376
     33 H3        -10.0980   -4.3784    4.3901 H         1 <0>         0.1393
     34 H4         -6.4897   -4.0986    1.0295 H         1 <0>         0.1535
     35 H5         -5.7247   -2.5357    4.0908 H         1 <0>         0.4176
     36 H6         -3.5250   -1.5611    2.9230 H         1 <0>         0.1006
     37 H7         -4.6877   -0.2252    3.1011 H         1 <0>         0.0995
     38 H8         -4.2950   -0.7019    0.3452 H         1 <0>         0.4026
     39 H9         -2.8470    0.7132   -0.8168 H         1 <0>         0.3855
     40 H10        -0.5510    3.4767   -1.2689 H         1 <0>         0.1169
     41 H11        -1.4544    2.1976   -2.1151 H         1 <0>         0.0909
     42 H12        -1.1681    5.0976   -3.0545 H         1 <0>         0.0724
     43 H13        -2.0890    3.8351   -3.9187 H         1 <0>         0.0694
     44 H14        -3.5071    5.3910   -4.9367 H         1 <0>         0.0753
     45 H15        -2.1574    6.5261   -4.6066 H         1 <0>         0.0813
     46 H16        -4.6254    7.0244   -3.5654 H         1 <0>         0.0810
     47 H17        -3.1645    7.3056   -2.5599 H         1 <0>         0.0755
     48 H18        -5.0075    4.8531   -2.6062 H         1 <0>         0.0633
     49 H19        -4.4026    5.7589   -1.1854 H         1 <0>         0.0756
     50 H20        -7.6832   -7.3349    1.2889 H         1 <0>         0.0577
     51 H21        -8.0548   -7.5167   -0.4394 H         1 <0>         0.1047
     52 H22        -9.6727   -8.7731    0.8519 H         1 <0>         0.0898
     53 H23       -10.4789   -7.3835    0.1028 H         1 <0>         0.0837
     54 H24        -9.4904   -7.4755    2.9733 H         1 <0>         0.0569
     55 H25       -11.1687   -7.7596    2.4627 H         1 <0>         0.1027
     56 O7          1.1472    1.8700   -0.0094 O.co2     1 <0>        -0.7672
@<TRIPOS>BOND
     1    1    6 ar
     2    1    2 ar
     3    1   32 1
     4    2    3 ar
     5    2   33 1
     6    3   31 1
     7    3    4 ar
     8    4    5 ar
     9    4   27 1
    10    5    6 ar
    11    5   34 1
    12    6    7 1
    13    7    8 am
    14    7   35 1
    15    8    9 2
    16    8   10 1
    17   10   11 1
    18   10   36 1
    19   10   37 1
    20   11   12 am
    21   11   38 1
    22   12   13 2
    23   12   14 am
    24   14   15 1
    25   14   39 1
    26   15   16 1
    27   15   17 1
    28   15   25 1
    29   17   18 1
    30   17   40 1
    31   17   41 1
    32   18   19 2
    33   18   20 am
    34   20   24 1
    35   20   21 1
    36   21   22 1
    37   21   42 1
    38   21   43 1
    39   22   23 1
    40   22   44 1
    41   22   45 1
    42   23   24 1
    43   23   46 1
    44   23   47 1
    45   24   48 1
    46   24   49 1
    47   25   26 2
    48   25   56 1
    49   27   28 1
    50   28   29 1
    51   28   50 1
    52   28   51 1
    53   29   30 1
    54   29   52 1
    55   29   53 1
    56   30   31 1
    57   30   54 1
    58   30   55 1
@<TRIPOS>MOLECULE
ZINC35354079
   31    32     0     0     0
SMALL
USER_CHARGES

@<TRIPOS>ATOM
      1 C1         -0.0225    1.8097    0.0120 C.3       1 <0>        -0.6558
      2 S1          0.0021   -0.0041    0.0020 S.o2      1 <0>         2.5075
      3 O1          0.8352   -0.4880    1.0465 O.2       1 <0>        -0.9377
      4 O2         -1.3147   -0.5105   -0.1678 O.2       1 <0>        -0.9455
      5 C2          0.8454   -0.4373   -1.4831 C.ar      1 <0>        -0.7410
      6 C3          0.1327   -0.6124   -2.6554 C.ar      1 <0>         0.0534
      7 C4          0.7904   -0.9519   -3.8210 C.ar      1 <0>        -0.2209
      8 C5          2.1698   -1.1177   -3.8154 C.ar      1 <0>         0.3620
      9 C6          2.8825   -0.9412   -2.6364 C.ar      1 <0>        -0.7232
     10 C7          2.2189   -0.5960   -1.4752 C.ar      1 <0>         0.1178
     11 S2          4.6319   -1.1508   -2.6236 S.o2      1 <0>         2.6385
     12 O3          5.1392   -0.3983   -3.7170 O.2       1 <0>        -1.0103
     13 O4          5.0574   -0.9318   -1.2855 O.2       1 <0>        -0.9944
     14 N1          4.9368   -2.7428   -2.9626 N.2       1 <0>        -1.0179
     15 C8          6.2445   -3.2017   -3.0193 C.2       1 <0>         0.4247
     16 N2          7.3858   -2.5522   -2.8323 N.2       1 <0>        -0.4362
     17 N3          8.5027   -3.1312   -2.9229 N.2       1 <0>        -0.2354
     18 C9          8.6080   -4.4132   -3.2077 C.2       1 <0>        -0.0534
     19 S3          6.8762   -4.8425   -3.3580 S.3       1 <0>        -0.1357
     20 N4          2.8383   -1.4616   -4.9926 N.pl3     1 <0>        -0.5681
     21 N5          2.1358   -1.6353   -6.1512 N.3       1 <0>        -0.6000
     22 H1          1.0001    2.1870    0.0043 H         1 <0>         0.1319
     23 H2         -0.5497    2.1708   -0.8711 H         1 <0>         0.1292
     24 H3         -0.5327    2.1613    0.9088 H         1 <0>         0.1288
     25 H4         -0.9396   -0.4837   -2.6590 H         1 <0>         0.1438
     26 H5          0.2332   -1.0888   -4.7360 H         1 <0>         0.1411
     27 H6          2.7730   -0.4543   -0.5591 H         1 <0>         0.1576
     28 H7          9.4878   -5.0302   -3.3153 H         1 <0>         0.2164
     29 H8          3.8014   -1.5771   -4.9874 H         1 <0>         0.4198
     30 H9          1.5945   -0.8130   -6.3726 H         1 <0>         0.3376
     31 H10         2.7501   -1.8799   -6.9133 H         1 <0>         0.3655
@<TRIPOS>BOND
     1    1    2 1
     2    1   22 1
     3    1   23 1
     4    1   24 1
     5    2    3 2
     6    2    4 2
     7    2    5 1
     8    5   10 ar
     9    5    6 ar
    10    6    7 ar
    11    6   25 1
    12    7    8 ar
    13    7   26 1
    14    8    9 ar
    15    8   20 1
    16    9   10 ar
    17    9   11 1
    18   10   27 1
    19   11   12 2
    20   11   13 2
    21   11   14 1
    22   14   15 1
    23   15   19 1
    24   15   16 2
    25   16   17 1
    26   17   18 2
    27   18   19 1
    28   18   28 1
    29   20   21 1
    30   20   29 1
    31   21   30 1
    32   21   31 1
@<TRIPOS>MOLECULE
ZINC33925302
   54    56     0     0     0
SMALL
USER_CHARGES

@<TRIPOS>ATOM
      1 C1          2.4558   -0.2373   -1.0575 C.3       1 <0>        -0.1174
      2 C2          1.1865   -0.8361   -0.5085 C.ar      1 <0>        -0.0853
      3 C3         -0.0296   -0.5333   -1.0923 C.ar      1 <0>        -0.0939
      4 C4         -1.1937   -1.0825   -0.5888 C.ar      1 <0>        -0.1131
      5 C5         -1.1420   -1.9349    0.4985 C.ar      1 <0>        -0.0651
      6 C6          0.0738   -2.2383    1.0816 C.ar      1 <0>        -0.1211
      7 C7          1.2387   -1.6923    0.5753 C.ar      1 <0>        -0.0767
      8 C8          0.1301   -3.1671    2.2671 C.3       1 <0>         0.1060
      9 H1         -0.4784   -4.0537    2.0892 H         1 <0>         0.1430
     10 C9          1.5716   -3.5563    2.5790 C.3       1 <0>        -0.1605
     11 H2          2.2562   -2.7104    2.5154 H         1 <0>         0.1610
     12 C10         1.3238   -4.0627    4.0503 C.3       1 <0>        -0.1370
     13 H3          0.5756   -4.8456    3.9262 H         1 <0>         0.0970
     14 C11         2.5152   -4.8359    4.3055 C.2       1 <0>         0.5778
     15 O1          3.0959   -4.9707    5.3610 O.2       1 <0>        -0.4102
     16 N1          2.8474   -5.3861    3.0924 N.am      1 <0>        -0.5925
     17 C12         2.1657   -4.8176    2.0361 C.2       1 <0>         0.5653
     18 O2          2.0599   -5.2460    0.9070 O.2       1 <0>        -0.4509
     19 C13         3.8339   -6.4570    2.9303 C.3       1 <0>         0.1578
     20 C14         3.3881   -7.6857    3.7256 C.3       1 <0>        -0.1620
     21 C15         3.9507   -6.8230    1.4493 C.3       1 <0>        -0.1496
     22 C16         5.1931   -5.9808    3.4467 C.3       1 <0>        -0.1653
     23 C17         0.5302   -2.9850    4.6541 C.3       1 <0>         0.0550
     24 N2         -0.3127   -2.4620    3.5141 N.4       1 <0>        -0.4857
     25 C18        -0.3752   -3.5414    5.7547 C.3       1 <0>        -0.1906
     26 C19        -1.2667   -2.4433    6.2748 C.2       1 <0>         0.4865
     27 O3         -1.1853   -1.3197    5.8084 O.co2     1 <0>        -0.6699
     28 O4         -2.0692   -2.6784    7.1620 O.co2     1 <0>        -0.6874
     29 C20         1.4340   -1.9134    5.2072 C.2       1 <0>         0.5238
     30 O5          1.3550   -0.7720    4.7860 O.co2     1 <0>        -0.6538
     31 O6          2.2443   -2.1879    6.0759 O.co2     1 <0>        -0.6404
     32 C21        -2.4114   -2.5329    1.0482 C.3       1 <0>        -0.1260
     33 H4          2.8637   -0.8930   -1.8269 H         1 <0>         0.0721
     34 H5          2.2393    0.7395   -1.4899 H         1 <0>         0.0696
     35 H6          3.1825   -0.1255   -0.2528 H         1 <0>         0.0709
     36 H7         -0.0699    0.1325   -1.9417 H         1 <0>         0.1280
     37 H8         -2.1437   -0.8454   -1.0444 H         1 <0>         0.1304
     38 H9          2.1891   -1.9324    1.0285 H         1 <0>         0.1289
     39 H10         2.4198   -8.0250    3.3578 H         1 <0>         0.0605
     40 H11         4.1220   -8.4825    3.6051 H         1 <0>         0.0763
     41 H12         3.3049   -7.4250    4.7807 H         1 <0>         0.0704
     42 H13         4.2682   -5.9477    0.8827 H         1 <0>         0.0637
     43 H14         4.6846   -7.6198    1.3287 H         1 <0>         0.0703
     44 H15         2.9823   -7.1623    1.0814 H         1 <0>         0.0754
     45 H16         5.1099   -5.7201    4.5018 H         1 <0>         0.0792
     46 H17         5.9270   -6.7776    3.3261 H         1 <0>         0.0737
     47 H18         5.5107   -5.1055    2.8801 H         1 <0>         0.0604
     48 H19        -0.1636   -1.4688    3.4171 H         1 <0>         0.4406
     49 H20        -0.9887   -4.3456    5.3485 H         1 <0>         0.0645
     50 H21         0.2379   -3.9279    6.5688 H         1 <0>         0.1087
     51 H22        -2.5625   -3.5230    0.6182 H         1 <0>         0.0819
     52 H23        -2.3344   -2.6155    2.1323 H         1 <0>         0.0552
     53 H24        -3.2554   -1.8927    0.7916 H         1 <0>         0.0823
     54 H25        -1.2897   -2.6481    3.6841 H         1 <0>         0.4179
@<TRIPOS>BOND
     1    1    2 1
     2    1   33 1
     3    1   34 1
     4    1   35 1
     5    2    7 ar
     6    2    3 ar
     7    3    4 ar
     8    3   36 1
     9    4    5 ar
    10    4   37 1
    11    5    6 ar
    12    5   32 1
    13    6    7 ar
    14    6    8 1
    15    7   38 1
    16    8    9 1
    17    8   24 1
    18    8   10 1
    19   10   11 1
    20   10   17 1
    21   10   12 1
    22   12   13 1
    23   12   14 1
    24   12   23 1
    25   14   15 2
    26   14   16 am
    27   16   17 am
    28   16   19 1
    29   17   18 2
    30   19   20 1
    31   19   21 1
    32   19   22 1
    33   20   39 1
    34   20   40 1
    35   20   41 1
    36   21   42 1
    37   21   43 1
    38   21   44 1
    39   22   45 1
    40   22   46 1
    41   22   47 1
    42   23   24 1
    43   23   25 1
    44   23   29 1
    45   24   48 1
    46   24   54 1
    47   25   26 1
    48   25   49 1
    49   25   50 1
    50   26   27 2
    51   26   28 1
    52   29   30 2
    53   29   31 1
    54   32   51 1
    55   32   52 1
    56   32   53 1
@<TRIPOS>MOLECULE
ZINC13424839
   62    64     0     0     0
SMALL
USER_CHARGES

@<TRIPOS>ATOM
      1 C1          0.1967    0.8924    0.4929 C.3       1 <0>        -0.1382
      2 C2          0.1646   -0.5288   -0.0729 C.3       1 <0>         0.0686
      3 H1          0.5500   -0.5227   -1.0925 H         1 <0>         0.0821
      4 C3          1.0191   -1.4291    0.7817 C.2       1 <0>         0.4951
      5 O1          0.4974   -2.2810    1.4808 O.co2     1 <0>        -0.6897
      6 O2          2.2320   -1.3057    0.7741 O.co2     1 <0>        -0.6849
      7 N1         -1.2146   -1.0226   -0.0752 N.am      1 <0>        -0.6837
      8 C4         -2.0327   -0.7322   -1.1062 C.2       1 <0>         0.5056
      9 O3         -1.6579    0.0135   -1.9862 O.2       1 <0>        -0.5550
     10 C5         -3.4129   -1.3342   -1.1656 C.3       1 <0>         0.1275
     11 H2         -3.3987   -2.3220   -0.7050 H         1 <0>         0.1138
     12 C6         -4.3946   -0.4343   -0.4123 C.3       1 <0>        -0.0964
     13 C7         -5.7699   -1.1033   -0.3696 C.3       1 <0>        -0.1387
     14 C8         -3.8908   -0.2126    1.0153 C.3       1 <0>        -0.1602
     15 N2         -3.8340   -1.4533   -2.5638 N.am      1 <0>        -0.6992
     16 C9         -4.7500   -2.3773   -2.9153 C.2       1 <0>         0.4915
     17 O4         -5.2258   -3.1101   -2.0741 O.2       1 <0>        -0.5135
     18 C10        -5.1832   -2.4998   -4.3535 C.3       1 <0>         0.0954
     19 H3         -4.3202   -2.7528   -4.9694 H         1 <0>         0.1505
     20 C11        -5.7593   -1.1783   -4.8173 C.3       1 <0>         0.0261
     21 H4         -5.0318   -0.3817   -4.6615 H         1 <0>         0.1012
     22 C12        -7.0717   -0.8399   -4.0868 C.3       1 <0>         0.0684
     23 H5         -6.8790   -0.3930   -3.1115 H         1 <0>         0.1328
     24 C13        -7.9925   -2.0336   -3.9701 C.3       1 <0>         0.0035
     25 H6         -8.7583   -1.8253   -3.2230 H         1 <0>         0.0919
     26 C14        -7.2825   -3.3494   -3.6132 C.3       1 <0>         0.2146
     27 H7         -7.0391   -3.4205   -2.5531 H         1 <0>         0.1631
     28 O5         -6.1593   -3.5301   -4.4649 O.3       1 <0>        -0.3394
     29 O6         -8.2584   -4.3390   -4.0336 O.3       1 <0>        -0.3543
     30 C15        -9.0751   -3.7188   -5.0378 C.3       1 <0>         0.2431
     31 O7         -8.6271   -2.3662   -5.2178 O.3       1 <0>        -0.3344
     32 C16       -10.5390   -3.7373   -4.5933 C.3       1 <0>        -0.1681
     33 C17        -8.9324   -4.4787   -6.3580 C.3       1 <0>        -0.1528
     34 O8         -7.6795    0.1140   -4.9975 O.3       1 <0>        -0.3582
     35 C18        -7.1328   -0.1441   -6.2990 C.3       1 <0>         0.2551
     36 O9         -6.1619   -1.2107   -6.1984 O.3       1 <0>        -0.3377
     37 C19        -6.4427    1.1157   -6.8258 C.3       1 <0>        -0.1720
     38 C20        -8.2547   -0.5507   -7.2565 C.3       1 <0>        -0.1594
     39 H8          1.2229    1.2597    0.4945 H         1 <0>         0.0662
     40 H9         -0.4213    1.5435   -0.1253 H         1 <0>         0.0479
     41 H10        -0.1887    0.8863    1.5124 H         1 <0>         0.0491
     42 H11        -1.5392   -1.5584    0.6654 H         1 <0>         0.4085
     43 H12        -4.4731    0.5254   -0.9230 H         1 <0>         0.0781
     44 H13        -5.6914   -2.0630    0.1411 H         1 <0>         0.0681
     45 H14        -6.4693   -0.4622    0.1671 H         1 <0>         0.0542
     46 H15        -6.1289   -1.2612   -1.3866 H         1 <0>         0.0461
     47 H16        -2.8862    0.2093    0.9846 H         1 <0>         0.0671
     48 H17        -4.5584    0.4758    1.5334 H         1 <0>         0.0632
     49 H18        -3.8688   -1.1651    1.5448 H         1 <0>         0.0647
     50 H19        -3.4534   -0.8672   -3.2365 H         1 <0>         0.4115
     51 H20       -10.6367   -3.2132   -3.6426 H         1 <0>         0.0625
     52 H21       -11.1534   -3.2428   -5.3456 H         1 <0>         0.0765
     53 H22       -10.8697   -4.7692   -4.4750 H         1 <0>         0.0758
     54 H23        -9.2759   -5.5047   -6.2256 H         1 <0>         0.0739
     55 H24        -9.5334   -3.9904   -7.1251 H         1 <0>         0.0707
     56 H25        -7.8862   -4.4825   -6.6638 H         1 <0>         0.0738
     57 H26        -5.6398    1.4013   -6.1462 H         1 <0>         0.0637
     58 H27        -6.0285    0.9167   -7.8142 H         1 <0>         0.0777
     59 H28        -7.1681    1.9265   -6.8923 H         1 <0>         0.0748
     60 H29        -8.9848    0.2559   -7.3241 H         1 <0>         0.0695
     61 H30        -7.8367   -0.7460   -8.2440 H         1 <0>         0.0682
     62 H31        -8.7421   -1.4515   -6.8836 H         1 <0>         0.0941
@<TRIPOS>BOND
     1    1    2 1
     2    1   39 1
     3    1   40 1
     4    1   41 1
     5    2    3 1
     6    2    4 1
     7    2    7 1
     8    4    5 2
     9    4    6 1
    10    7    8 am
    11    7   42 1
    12    8    9 2
    13    8   10 1
    14   10   11 1
    15   10   12 1
    16   10   15 1
    17   12   13 1
    18   12   14 1
    19   12   43 1
    20   13   44 1
    21   13   45 1
    22   13   46 1
    23   14   47 1
    24   14   48 1
    25   14   49 1
    26   15   16 am
    27   15   50 1
    28   16   17 2
    29   16   18 1
    30   18   19 1
    31   18   28 1
    32   18   20 1
    33   20   21 1
    34   20   36 1
    35   20   22 1
    36   22   23 1
    37   22   24 1
    38   22   34 1
    39   24   25 1
    40   24   31 1
    41   24   26 1
    42   26   27 1
    43   26   28 1
    44   26   29 1
    45   29   30 1
    46   30   31 1
    47   30   32 1
    48   30   33 1
    49   32   51 1
    50   32   52 1
    51   32   53 1
    52   33   54 1
    53   33   55 1
    54   33   56 1
    55   34   35 1
    56   35   36 1
    57   35   37 1
    58   35   38 1
    59   37   57 1
    60   37   58 1
    61   37   59 1
    62   38   60 1
    63   38   61 1
    64   38   62 1
@<TRIPOS>MOLECULE
ZINC26573299
   34    35     0     0     0
SMALL
USER_CHARGES
(2R,3S)-3-[[(2E)-2-(2-aminothiazol-4-yl)-2-methoxyimino-acetyl]amino]-2-ethynyl-4-oxo-azetidine-1-sulfonic acid
@<TRIPOS>ATOM
      1 C1          2.6581    5.7225   -2.3850 C.3       1 <0>         0.0270
      2 O1          1.8139    5.2968   -3.4565 O.3       1 <0>        -0.2195
      3 N1          0.7123    4.5087   -3.0436 N.2       1 <0>        -0.2883
      4 C2         -0.1333    4.0578   -3.9262 C.2       1 <0>         0.1874
      5 C3         -0.0314    4.4908   -5.3364 C.2       1 <0>         0.0971
      6 C4          0.8684    5.4562   -5.7019 C.2       1 <0>        -0.1885
      7 S1          0.5509    5.5604   -7.4582 S.3       1 <0>        -0.0449
      8 C5         -0.7347    4.3212   -7.5300 C.2       1 <0>         0.3976
      9 N2         -0.8100    3.9426   -6.2682 N.2       1 <0>        -0.5359
     10 N3         -1.4576    3.8726   -8.6227 N.pl3     1 <0>        -0.8211
     11 C6         -1.1973    3.1111   -3.5168 C.2       1 <0>         0.5834
     12 O2         -1.9860    2.6906   -4.3400 O.2       1 <0>        -0.4786
     13 N4         -1.2902    2.7165   -2.2315 N.am      1 <0>        -0.7139
     14 C7         -2.3421    1.7805   -1.8268 C.3       1 <0>         0.1041
     15 H1         -2.5344    1.3711   -2.8295 H         1 <0>         0.1698
     16 C8         -2.0134    0.9638   -0.5769 C.3       1 <0>         0.2460
     17 H2         -1.9815   -0.1356   -0.5923 H         1 <0>         0.1452
     18 N5         -3.0785    1.6426    0.1625 N.am      1 <0>        -0.9406
     19 C9         -3.3874    2.3750   -0.9238 C.2       1 <0>         0.5427
     20 O3         -4.2285    3.2282   -1.1120 O.2       1 <0>        -0.4658
     21 S2         -3.6654    1.5481    1.7081 S.o2      1 <0>         2.7615
     22 O4         -5.0051    2.0199    1.6634 O.2       1 <0>        -1.0431
     23 O5         -3.3289    0.2550    2.1919 O.2       1 <0>        -1.0519
     24 O6         -2.8810    2.5450    2.5491 O.3       1 <0>        -1.0725
     25 C10        -0.6711    1.2443   -0.0416 C.1       1 <0>        -0.2191
     26 C11         0.3994    1.4680    0.3853 C.1       1 <0>        -0.1643
     27 H3          3.4851    6.3260   -2.7874 H         1 <0>         0.1018
     28 H4          3.0652    4.8417   -1.8668 H         1 <0>         0.0584
     29 H5          2.0738    6.3275   -1.6760 H         1 <0>         0.0585
     30 H6          1.5749    6.0040   -5.0960 H         1 <0>         0.2151
     31 H7         -2.2235    3.0937   -8.4933 H         1 <0>         0.4442
     32 H8         -1.2659    4.2951   -9.6200 H         1 <0>         0.4413
     33 H9         -0.5762    3.0972   -1.4863 H         1 <0>         0.4314
     34 H10         1.4024    1.6776    0.7853 H         1 <0>         0.2356
@<TRIPOS>BOND
     1    1    2 1
     2    1   27 1
     3    1   28 1
     4    1   29 1
     5    2    3 1
     6    3    4 2
     7    4    5 1
     8    4   11 1
     9    5    9 1
    10    5    6 2
    11    6    7 1
    12    6   30 1
    13    7    8 1
    14    8    9 2
    15    8   10 1
    16   10   31 1
    17   10   32 1
    18   11   12 2
    19   11   13 am
    20   13   14 1
    21   13   33 1
    22   14   15 1
    23   14   19 1
    24   14   16 1
    25   16   17 1
    26   16   18 1
    27   16   25 1
    28   18   19 am
    29   18   21 1
    30   19   20 2
    31   21   22 2
    32   21   23 2
    33   21   24 1
    34   25   26 3
    35   26   34 1
@<TRIPOS>MOLECULE
ZINC37432455
   42    43     0     0     0
SMALL
USER_CHARGES

@<TRIPOS>ATOM
      1 C1         -0.0187    1.5258    0.0104 C.3       1 <0>        -0.1802
      2 C2          0.0021   -0.0041    0.0020 C.3       1 <0>         0.1062
      3 H1         -1.0205   -0.3814    0.0098 H         1 <0>         0.0642
      4 C3          0.7421   -0.5109    1.2415 C.3       1 <0>         0.0807
      5 H2          0.1838   -0.2350    2.1361 H         1 <0>         0.0911
      6 C4          0.8700   -2.0108    1.1719 C.2       1 <0>         0.4996
      7 O1          1.8419   -2.5156    0.6361 O.co2     1 <0>        -0.6777
      8 O2          0.0015   -2.7197    1.6514 O.co2     1 <0>        -0.7017
      9 N1          2.0766    0.0911    1.2937 N.am      1 <0>        -0.6845
     10 C5          2.7121    0.2198    2.4753 C.2       1 <0>         0.5143
     11 O3          2.1791   -0.1628    3.4953 O.2       1 <0>        -0.5467
     12 C6          4.0849    0.8391    2.5290 C.3       1 <0>        -0.1160
     13 H3          4.0402    1.8571    2.1422 H         1 <0>         0.0934
     14 C7          5.0521    0.0118    1.6791 C.3       1 <0>        -0.1125
     15 C8          6.4390    0.6582    1.7064 C.3       1 <0>        -0.1324
     16 C9          6.9592    0.6807    3.1471 C.3       1 <0>         0.1039
     17 N2          5.9652    1.3485    3.9985 N.am      1 <0>        -0.6064
     18 C10         4.5781    0.8643    3.9791 C.3       1 <0>         0.1326
     19 C11         6.3189    2.3860    4.7826 C.2       1 <0>         0.5426
     20 O4          5.4891    2.9289    5.4809 O.2       1 <0>        -0.5415
     21 C12         7.7456    2.8716    4.7918 C.3       1 <0>        -0.1949
     22 C13         8.5605    2.6455    6.0668 C.3       1 <0>        -0.1523
     23 C14         8.0838    4.0531    5.7031 C.3       1 <0>        -0.1490
     24 O5          0.6709   -0.4649   -1.1737 O.3       1 <0>        -0.5452
     25 H4          1.0039    1.9031    0.0027 H         1 <0>         0.0600
     26 H5         -0.5459    1.8868   -0.8726 H         1 <0>         0.0533
     27 H6         -0.5289    1.8773    0.9072 H         1 <0>         0.0632
     28 H7          2.5029    0.3971    0.4779 H         1 <0>         0.3959
     29 H8          5.1148   -0.9995    2.0809 H         1 <0>         0.0757
     30 H9          4.6901   -0.0277    0.6517 H         1 <0>         0.0774
     31 H10         7.1215    0.0816    1.0821 H         1 <0>         0.0809
     32 H11         6.3725    1.6782    1.3277 H         1 <0>         0.0674
     33 H12         7.1123   -0.3405    3.4963 H         1 <0>         0.0731
     34 H13         7.9011    1.2278    3.1871 H         1 <0>         0.0867
     35 H14         3.9491    1.5323    4.5675 H         1 <0>         0.0984
     36 H15         4.5369   -0.1417    4.3967 H         1 <0>         0.0802
     37 H16         8.2713    2.8039    3.8394 H         1 <0>         0.1251
     38 H17         8.0648    2.1455    6.8990 H         1 <0>         0.0993
     39 H18         9.6228    2.4288    5.9534 H         1 <0>         0.1037
     40 H19         8.8324    4.7625    5.3504 H         1 <0>         0.1019
     41 H20         7.2745    4.4792    6.2960 H         1 <0>         0.1074
     42 H21         0.2557   -0.1806   -1.9994 H         1 <0>         0.3625
@<TRIPOS>BOND
     1    1    2 1
     2    1   25 1
     3    1   26 1
     4    1   27 1
     5    2    3 1
     6    2    4 1
     7    2   24 1
     8    4    5 1
     9    4    6 1
    10    4    9 1
    11    6    7 2
    12    6    8 1
    13    9   10 am
    14    9   28 1
    15   10   11 2
    16   10   12 1
    17   12   13 1
    18   12   18 1
    19   12   14 1
    20   14   15 1
    21   14   29 1
    22   14   30 1
    23   15   16 1
    24   15   31 1
    25   15   32 1
    26   16   17 1
    27   16   33 1
    28   16   34 1
    29   17   18 1
    30   17   19 am
    31   18   35 1
    32   18   36 1
    33   19   20 2
    34   19   21 1
    35   21   23 1
    36   21   22 1
    37   21   37 1
    38   22   23 1
    39   22   38 1
    40   22   39 1
    41   23   40 1
    42   23   41 1
    43   24   42 1
@<TRIPOS>MOLECULE
ZINC38655364
   34    34     0     0     0
SMALL
USER_CHARGES

@<TRIPOS>ATOM
      1 C1         -0.0184    1.5028    0.0103 C.3       1 <0>        -0.1202
      2 C2          0.0021   -0.0041    0.0020 C.2       1 <0>         0.1016
      3 N1          0.0215   -0.6565    1.1181 N.2       1 <0>        -0.2198
      4 O1          0.0236    0.0449    2.3482 O.3       1 <0>        -0.6591
      5 S1          0.0475   -0.8563    3.5746 S.o2      1 <0>         2.7747
      6 O2         -0.3133   -0.0279    4.7146 O.2       1 <0>        -1.0738
      7 O3         -0.9247   -1.9129    3.3413 O.2       1 <0>        -1.0553
      8 O4          1.4005   -1.3784    3.6888 O.3       1 <0>        -1.0923
      9 S2         -0.0005   -0.8768   -1.5287 S.3       1 <0>         0.0039
     10 C3          0.0279   -2.6230   -1.0383 C.3       1 <0>         0.0573
     11 H1          0.8242   -2.7836   -0.3116 H         1 <0>         0.1049
     12 C4          0.2782   -3.4955   -2.2711 C.3       1 <0>         0.0678
     13 H2         -0.4955   -3.3054   -3.0151 H         1 <0>         0.0852
     14 C5          0.2409   -4.9704   -1.8593 C.3       1 <0>         0.0867
     15 H3          1.0458   -5.1721   -1.1526 H         1 <0>         0.0812
     16 C6         -1.1082   -5.2707   -1.1987 C.3       1 <0>         0.0950
     17 H4         -1.9098   -5.1164   -1.9210 H         1 <0>         0.0760
     18 C7         -1.3049   -4.3297   -0.0073 C.3       1 <0>         0.0967
     19 H5         -0.5261   -4.5127    0.7330 H         1 <0>         0.0877
     20 O5         -1.2281   -2.9745   -0.4543 O.3       1 <0>        -0.3253
     21 C8         -2.6764   -4.5828    0.6218 C.3       1 <0>         0.0912
     22 O6         -2.8133   -3.7882    1.8016 O.3       1 <0>        -0.5268
     23 O7         -1.1272   -6.6261   -0.7464 O.3       1 <0>        -0.5476
     24 O8          0.4026   -5.7939   -3.0159 O.3       1 <0>        -0.5580
     25 O9          1.5588   -3.1850   -2.8238 O.3       1 <0>        -0.5524
     26 H6          1.0042    1.8801    0.0026 H         1 <0>         0.0911
     27 H7         -0.5455    1.8639   -0.8728 H         1 <0>         0.0815
     28 H8         -0.5286    1.8543    0.9071 H         1 <0>         0.0960
     29 H9         -3.4575   -4.3145   -0.0896 H         1 <0>         0.0448
     30 H10        -2.7681   -5.6374    0.8813 H         1 <0>         0.0667
     31 H11        -3.6610   -3.8982    2.2537 H         1 <0>         0.3721
     32 H12        -1.0034   -7.2774   -1.4504 H         1 <0>         0.3877
     33 H13         1.2347   -5.6509   -3.4872 H         1 <0>         0.3915
     34 H14         1.6541   -2.2640   -3.1026 H         1 <0>         0.3895
@<TRIPOS>BOND
     1    1    2 1
     2    1   26 1
     3    1   27 1
     4    1   28 1
     5    2    3 2
     6    2    9 1
     7    3    4 1
     8    4    5 1
     9    5    6 2
    10    5    7 2
    11    5    8 1
    12    9   10 1
    13   10   11 1
    14   10   20 1
    15   10   12 1
    16   12   13 1
    17   12   14 1
    18   12   25 1
    19   14   15 1
    20   14   16 1
    21   14   24 1
    22   16   17 1
    23   16   18 1
    24   16   23 1
    25   18   19 1
    26   18   20 1
    27   18   21 1
    28   21   22 1
    29   21   29 1
    30   21   30 1
    31   22   31 1
    32   23   32 1
    33   24   33 1
    34   25   34 1
@<TRIPOS>MOLECULE
ZINC40698921
   39    40     0     0     0
SMALL
USER_CHARGES

@<TRIPOS>ATOM
      1 C1         -0.0187    1.5258    0.0104 C.3       1 <0>        -0.1743
      2 C2          1.3165    0.7789   -0.0063 C.3       1 <0>        -0.1783
      3 C3          0.0021   -0.0041    0.0020 C.3       1 <0>        -0.1708
      4 C4         -0.4085   -0.7090   -1.2923 C.3       1 <0>         0.1575
      5 N1         -0.4408   -2.1568   -1.0708 N.am      1 <0>        -0.6146
      6 C5          0.7066   -3.0505   -1.2679 C.3       1 <0>         0.1170
      7 C6          0.3488   -4.3523   -0.5170 C.3       1 <0>        -0.1219
      8 H1          0.7321   -4.3321    0.5032 H         1 <0>         0.1169
      9 C7         -1.1968   -4.3082   -0.5285 C.3       1 <0>        -0.1437
     10 C8         -1.5235   -2.8366   -0.6554 C.2       1 <0>         0.5216
     11 O1         -2.6055   -2.3424   -0.4192 O.2       1 <0>        -0.5347
     12 C9          0.8603   -5.5605   -1.2585 C.2       1 <0>         0.5216
     13 O2          1.4632   -5.4215   -2.3016 O.2       1 <0>        -0.5394
     14 N2          0.6477   -6.7954   -0.7624 N.am      1 <0>        -0.6913
     15 C10         1.1448   -7.9700   -1.4832 C.3       1 <0>         0.0785
     16 H2          1.0787   -7.7924   -2.5566 H         1 <0>         0.0855
     17 C11         0.2985   -9.1903   -1.1150 C.3       1 <0>        -0.1108
     18 C12        -1.1339   -8.9864   -1.6126 C.3       1 <0>         0.0778
     19 O3         -1.9243  -10.1261   -1.2687 O.3       1 <0>        -0.5753
     20 C13         2.5812   -8.2217   -1.1032 C.2       1 <0>         0.4936
     21 O4          2.9821   -7.9105    0.0054 O.co2     1 <0>        -0.6885
     22 O5          3.3425   -8.7366   -1.9043 O.co2     1 <0>        -0.6905
     23 H3         -0.3072    2.0201    0.9381 H         1 <0>         0.0944
     24 H4         -0.3248    2.0300   -0.9061 H         1 <0>         0.0953
     25 H5          1.8888    0.7918   -0.9339 H         1 <0>         0.0962
     26 H6          1.9064    0.7818    0.9103 H         1 <0>         0.0940
     27 H7         -0.2728   -0.5162    0.9241 H         1 <0>         0.1060
     28 H8         -1.3977   -0.3657   -1.5950 H         1 <0>         0.0864
     29 H9          0.3122   -0.4774   -2.0766 H         1 <0>         0.0822
     30 H10         0.8483   -3.2540   -2.3293 H         1 <0>         0.0947
     31 H11         1.6076   -2.6064   -0.8447 H         1 <0>         0.0855
     32 H12        -1.5879   -4.8646   -1.3803 H         1 <0>         0.1084
     33 H13        -1.5967   -4.7059    0.4042 H         1 <0>         0.1094
     34 H14         0.1654   -6.9066    0.0719 H         1 <0>         0.3944
     35 H15         0.7219  -10.0800   -1.5811 H         1 <0>         0.0841
     36 H16         0.2927   -9.3151   -0.0322 H         1 <0>         0.0729
     37 H17        -1.5572   -8.0967   -1.1465 H         1 <0>         0.0429
     38 H18        -1.1281   -8.8616   -2.6954 H         1 <0>         0.0442
     39 H19        -2.8463  -10.0659   -1.5539 H         1 <0>         0.3730
@<TRIPOS>BOND
     1    1    3 1
     2    1    2 1
     3    1   23 1
     4    1   24 1
     5    2    3 1
     6    2   25 1
     7    2   26 1
     8    3    4 1
     9    3   27 1
    10    4    5 1
    11    4   28 1
    12    4   29 1
    13    5   10 am
    14    5    6 1
    15    6    7 1
    16    6   30 1
    17    6   31 1
    18    7    8 1
    19    7    9 1
    20    7   12 1
    21    9   10 1
    22    9   32 1
    23    9   33 1
    24   10   11 2
    25   12   13 2
    26   12   14 am
    27   14   15 1
    28   14   34 1
    29   15   16 1
    30   15   17 1
    31   15   20 1
    32   17   18 1
    33   17   35 1
    34   17   36 1
    35   18   19 1
    36   18   37 1
    37   18   38 1
    38   19   39 1
    39   20   21 2
    40   20   22 1
@<TRIPOS>MOLECULE
ZINC50603841
   36    36     0     0     0
SMALL
USER_CHARGES

@<TRIPOS>ATOM
      1 C1         -0.0188    1.5335    0.0105 C.3       1 <0>        -0.1182
      2 C2          1.4289    2.0809   -0.0004 C.3       1 <0>        -0.5767
      3 S1          2.3583    0.7478   -0.8615 S.o2      1 <0>         2.3673
      4 O1          3.3158    0.1993    0.0338 O.2       1 <0>        -0.9384
      5 O2          2.7814    1.2252   -2.1313 O.2       1 <0>        -0.9421
      6 C3          0.9956   -0.4689   -1.1008 C.3       1 <0>        -0.5708
      7 C4          0.0021   -0.0041    0.0020 C.3       1 <0>        -0.1113
      8 H1          0.3313   -0.3731    0.9734 H         1 <0>         0.1048
      9 C5         -1.3983   -0.5382   -0.3056 C.3       1 <0>         0.1569
     10 N1         -1.3990   -1.9990   -0.1949 N.am      1 <0>        -0.7541
     11 C6         -2.5322   -2.6916   -0.4240 C.2       1 <0>         0.7042
     12 O3         -3.5540   -2.1041   -0.7226 O.2       1 <0>        -0.5910
     13 N2         -2.5329   -4.0355   -0.3222 N.am      1 <0>        -0.7122
     14 C7         -3.7647   -4.7884   -0.5712 C.3       1 <0>         0.0972
     15 H2         -4.3365   -4.2989   -1.3596 H         1 <0>         0.0839
     16 C8         -3.4129   -6.2127   -1.0056 C.3       1 <0>        -0.1104
     17 C9         -2.6852   -6.1706   -2.3508 C.3       1 <0>         0.0788
     18 O4         -2.3567   -7.5008   -2.7565 O.3       1 <0>        -0.5758
     19 C10        -4.5876   -4.8368    0.6903 C.2       1 <0>         0.4928
     20 O5         -5.8034   -4.8983    0.6230 O.co2     1 <0>        -0.6929
     21 O6         -4.0376   -4.8144    1.7782 O.co2     1 <0>        -0.6898
     22 H3         -0.5313    1.8835    0.9065 H         1 <0>         0.1010
     23 H4         -0.5483    1.8930   -0.8718 H         1 <0>         0.0919
     24 H5          1.4848    3.0146   -0.5601 H         1 <0>         0.1408
     25 H6          1.7988    2.2155    1.0160 H         1 <0>         0.1387
     26 H7          0.5543   -0.3764   -2.0932 H         1 <0>         0.1434
     27 H8          1.3394   -1.4869   -0.9179 H         1 <0>         0.1420
     28 H9         -2.1110   -0.1196    0.4050 H         1 <0>         0.0737
     29 H10        -1.6827   -0.2504   -1.3177 H         1 <0>         0.0708
     30 H11        -0.5839   -2.4677    0.0433 H         1 <0>         0.3924
     31 H12        -1.7177   -4.5043   -0.0840 H         1 <0>         0.3884
     32 H13        -2.7668   -6.6716   -0.2572 H         1 <0>         0.0719
     33 H14        -4.3268   -6.7984   -1.1050 H         1 <0>         0.0843
     34 H15        -3.3313   -5.7116   -3.0992 H         1 <0>         0.0442
     35 H16        -1.7713   -5.5849   -2.2514 H         1 <0>         0.0421
     36 H17        -1.8924   -7.5504   -3.6033 H         1 <0>         0.3722
@<TRIPOS>BOND
     1    1    7 1
     2    1    2 1
     3    1   22 1
     4    1   23 1
     5    2    3 1
     6    2   24 1
     7    2   25 1
     8    3    4 2
     9    3    5 2
    10    3    6 1
    11    6    7 1
    12    6   26 1
    13    6   27 1
    14    7    8 1
    15    7    9 1
    16    9   10 1
    17    9   28 1
    18    9   29 1
    19   10   11 am
    20   10   30 1
    21   11   12 2
    22   11   13 am
    23   13   14 1
    24   13   31 1
    25   14   15 1
    26   14   16 1
    27   14   19 1
    28   16   17 1
    29   16   32 1
    30   16   33 1
    31   17   18 1
    32   17   34 1
    33   17   35 1
    34   18   36 1
    35   19   20 2
    36   19   21 1
@<TRIPOS>MOLECULE
ZINC26477765
   49    50     0     0     0
SMALL
USER_CHARGES
(2S)-2-[[(3R)-1-(4-acetamidophenyl)sulfonylpiperidine-3-carbonyl]amino]propanoic acid
@<TRIPOS>ATOM
      1 C1          4.9733    4.6628   -1.9886 C.3       1 <0>        -0.1367
      2 C2          4.3941    4.4274   -0.5922 C.3       1 <0>         0.0982
      3 H1          5.0517    3.7776    0.0038 H         1 <0>         0.0866
      4 C3          4.2140    5.7505    0.1065 C.2       1 <0>         0.4648
      5 O1          3.1151    6.0970    0.4701 O.co2     1 <0>        -0.6366
      6 O2          5.2743    6.5440    0.3248 O.co2     1 <0>        -0.7561
      7 N1          3.0972    3.7560   -0.7082 N.am      1 <0>        -0.7086
      8 C4          3.0406    2.4138   -0.8169 C.2       1 <0>         0.5118
      9 O3          4.0633    1.7619   -0.8185 O.2       1 <0>        -0.5588
     10 C5          1.7065    1.7231   -0.9363 C.3       1 <0>        -0.1205
     11 H2          1.1985    2.0972   -1.8374 H         1 <0>         0.0974
     12 C6          0.8617    2.0261    0.3033 C.3       1 <0>        -0.1116
     13 C7         -0.5056    1.3520    0.1681 C.3       1 <0>        -0.1329
     14 C8         -0.3153   -0.1650    0.0718 C.3       1 <0>         0.1160
     15 N2          0.6126   -0.4562   -1.0296 N.pl3     1 <0>        -0.9935
     16 C9          1.9220    0.2103   -1.0451 C.3       1 <0>         0.1396
     17 S1          0.1905   -1.5150   -2.2309 S.o2      1 <0>         2.6919
     18 O4          1.4037   -2.0056   -2.7846 O.2       1 <0>        -0.9523
     19 O5         -0.8002   -2.3748   -1.6847 O.2       1 <0>        -0.9587
     20 C10        -0.5986   -0.5781   -3.4975 C.ar      1 <0>        -0.6952
     21 C11        -1.9687   -0.3938   -3.4673 C.ar      1 <0>         0.0015
     22 C12        -2.5897    0.3441   -4.4560 C.ar      1 <0>        -0.1702
     23 C13        -1.8378    0.8927   -5.4867 C.ar      1 <0>         0.2073
     24 C14        -0.4626    0.7012   -5.5170 C.ar      1 <0>        -0.1455
     25 C15         0.1529   -0.0336   -4.5227 C.ar      1 <0>         0.0037
     26 N3         -2.4643    1.6370   -6.4923 N.am      1 <0>        -0.6916
     27 C16        -1.9846    1.6066   -7.7514 C.2       1 <0>         0.5116
     28 O6         -1.0702    0.8616   -8.0341 O.2       1 <0>        -0.5215
     29 C17        -2.5843    2.4982   -8.8080 C.3       1 <0>        -0.1754
     30 H3          5.1048    3.6971   -2.4986 H         1 <0>         0.0477
     31 H4          5.9471    5.1670   -1.9014 H         1 <0>         0.0708
     32 H5          4.2845    5.2936   -2.5697 H         1 <0>         0.0474
     33 H6          2.1697    4.3473   -0.7066 H         1 <0>         0.4227
     34 H7          1.3727    1.6413    1.1982 H         1 <0>         0.0729
     35 H8          0.7260    3.1136    0.3977 H         1 <0>         0.0790
     36 H9         -1.1207    1.5907    1.0483 H         1 <0>         0.0808
     37 H10        -1.0069    1.7185   -0.7398 H         1 <0>         0.0689
     38 H11         0.0986   -0.5434    1.0181 H         1 <0>         0.0785
     39 H12        -1.2861   -0.6448   -0.1216 H         1 <0>         0.0911
     40 H13         2.4460   -0.0188   -1.9848 H         1 <0>         0.0980
     41 H14         2.5269   -0.1361   -0.1941 H         1 <0>         0.0890
     42 H15        -2.5534   -0.8241   -2.6677 H         1 <0>         0.1425
     43 H16        -3.6593    0.4912   -4.4296 H         1 <0>         0.1349
     44 H17         0.1249    1.1269   -6.3170 H         1 <0>         0.1422
     45 H18         1.2223   -0.1828   -4.5457 H         1 <0>         0.1432
     46 H19        -3.3484    2.2470   -6.2552 H         1 <0>         0.4397
     47 H20        -2.0656    2.3338   -9.7640 H         1 <0>         0.0981
     48 H21        -2.4728    3.5502   -8.5065 H         1 <0>         0.0953
     49 H22        -3.6521    2.2614   -8.9247 H         1 <0>         0.0926
@<TRIPOS>BOND
     1    1    2 1
     2    1   30 1
     3    1   31 1
     4    1   32 1
     5    2    3 1
     6    2    4 1
     7    2    7 1
     8    4    5 2
     9    4    6 1
    10    7    8 am
    11    7   33 1
    12    8    9 2
    13    8   10 1
    14   10   11 1
    15   10   16 1
    16   10   12 1
    17   12   13 1
    18   12   34 1
    19   12   35 1
    20   13   14 1
    21   13   36 1
    22   13   37 1
    23   14   15 1
    24   14   38 1
    25   14   39 1
    26   15   16 1
    27   15   17 1
    28   16   40 1
    29   16   41 1
    30   17   18 2
    31   17   19 2
    32   17   20 1
    33   20   25 ar
    34   20   21 ar
    35   21   22 ar
    36   21   42 1
    37   22   23 ar
    38   22   43 1
    39   23   24 ar
    40   23   26 1
    41   24   25 ar
    42   24   44 1
    43   25   45 1
    44   26   27 am
    45   26   46 1
    46   27   28 2
    47   27   29 1
    48   29   47 1
    49   29   48 1
    50   29   49 1
@<TRIPOS>MOLECULE
ZINC37455010
   43    43     0     0     0
SMALL
USER_CHARGES

@<TRIPOS>ATOM
      1 C1         -0.0187    1.5258    0.0104 C.3       1 <0>        -0.1492
      2 C2          0.0021   -0.0041    0.0020 C.3       1 <0>        -0.0906
      3 C3          0.7421   -0.5109    1.2415 C.3       1 <0>        -0.1448
      4 C4         -1.4333   -0.5336    0.0129 C.3       1 <0>        -0.1265
      5 C5         -2.1352   -0.1312   -1.2857 C.3       1 <0>         0.1615
      6 H1         -2.0716    0.9494   -1.4133 H         1 <0>         0.0991
      7 C6         -3.5829   -0.5453   -1.2234 C.2       1 <0>         0.5148
      8 O1         -3.9482   -1.5587   -1.7807 O.2       1 <0>        -0.4995
      9 N1         -4.4715    0.2104   -0.5484 N.am      1 <0>        -0.5847
     10 C7         -4.1664    1.4635    0.1658 C.3       1 <0>         0.0833
     11 C8         -5.5120    2.2295    0.2150 C.3       1 <0>         0.0717
     12 H2         -5.5358    2.9238    1.0550 H         1 <0>         0.0801
     13 C9         -6.5227    1.0708    0.4225 C.3       1 <0>        -0.1043
     14 C10        -5.9069   -0.0750   -0.4076 C.3       1 <0>         0.0744
     15 H3         -6.3749   -0.1158   -1.3912 H         1 <0>         0.0661
     16 C11        -6.1008   -1.3859    0.3101 C.2       1 <0>         0.4984
     17 O2         -5.2777   -1.7609    1.1276 O.co2     1 <0>        -0.6822
     18 O3         -7.0809   -2.0714    0.0733 O.co2     1 <0>        -0.7000
     19 O4         -5.7586    2.9111   -1.0165 O.3       1 <0>        -0.3711
     20 C12        -5.2706    4.2539   -1.0455 C.3       1 <0>         0.0297
     21 N2         -1.4855   -0.7957   -2.4182 N.am      1 <0>        -0.7335
     22 C13        -1.4419   -2.1416   -2.4752 C.2       1 <0>         0.7034
     23 O5         -1.9418   -2.8042   -1.5867 O.2       1 <0>        -0.5463
     24 N3         -0.8442   -2.7529   -3.5171 N.am      1 <0>        -0.8744
     25 H4          1.0039    1.9031    0.0027 H         1 <0>         0.0514
     26 H5         -0.5459    1.8868   -0.8726 H         1 <0>         0.0517
     27 H6         -0.5289    1.8773    0.9072 H         1 <0>         0.0561
     28 H7          0.5123   -0.3556   -0.8948 H         1 <0>         0.0676
     29 H8          0.2319   -0.1594    2.1383 H         1 <0>         0.0552
     30 H9          0.7568   -1.6008    1.2356 H         1 <0>         0.0548
     31 H10         1.7647   -0.1336    1.2338 H         1 <0>         0.0498
     32 H11        -1.4190   -1.6203    0.0965 H         1 <0>         0.0969
     33 H12        -1.9701   -0.1109    0.8621 H         1 <0>         0.0758
     34 H13        -3.8149    1.2490    1.1751 H         1 <0>         0.0750
     35 H14        -3.4212    2.0404   -0.3817 H         1 <0>         0.0669
     36 H15        -6.5858    0.7980    1.4759 H         1 <0>         0.0879
     37 H16        -7.5045    1.3412    0.0336 H         1 <0>         0.0832
     38 H17        -5.7508    4.8321   -0.2561 H         1 <0>         0.0396
     39 H18        -4.1918    4.2519   -0.8895 H         1 <0>         0.0382
     40 H19        -5.4970    4.7019   -2.0131 H         1 <0>         0.0820
     41 H20        -1.0867   -0.2671   -3.1270 H         1 <0>         0.3929
     42 H21        -0.4454   -2.2243   -4.2259 H         1 <0>         0.3885
     43 H22        -0.8128   -3.7215   -3.5581 H         1 <0>         0.4110
@<TRIPOS>BOND
     1    1    2 1
     2    1   25 1
     3    1   26 1
     4    1   27 1
     5    2    3 1
     6    2    4 1
     7    2   28 1
     8    3   29 1
     9    3   30 1
    10    3   31 1
    11    4    5 1
    12    4   32 1
    13    4   33 1
    14    5    6 1
    15    5    7 1
    16    5   21 1
    17    7    8 2
    18    7    9 am
    19    9   14 1
    20    9   10 1
    21   10   11 1
    22   10   34 1
    23   10   35 1
    24   11   12 1
    25   11   13 1
    26   11   19 1
    27   13   14 1
    28   13   36 1
    29   13   37 1
    30   14   15 1
    31   14   16 1
    32   16   17 2
    33   16   18 1
    34   19   20 1
    35   20   38 1
    36   20   39 1
    37   20   40 1
    38   21   22 am
    39   21   41 1
    40   22   23 2
    41   22   24 am
    42   24   42 1
    43   24   43 1
@<TRIPOS>MOLECULE
ZINC40588977
   42    42     0     0     0
SMALL
USER_CHARGES

@<TRIPOS>ATOM
      1 C1          3.3838   -6.4829    8.1536 C.3       1 <0>        -0.1203
      2 S1          2.3122   -5.0221    8.2435 S.3       1 <0>        -0.2760
      3 C2          2.5553   -4.2003    6.6448 C.3       1 <0>        -0.0726
      4 C3          1.6972   -2.9349    6.5860 C.3       1 <0>        -0.0920
      5 C4          1.9023   -2.2418    5.2375 C.3       1 <0>         0.0982
      6 H1          1.6943   -2.9458    4.4318 H         1 <0>         0.0853
      7 C5          0.9671   -1.0649    5.1302 C.2       1 <0>         0.4917
      8 O1          1.4098    0.0706    5.1643 O.co2     1 <0>        -0.6859
      9 O2         -0.2321   -1.2483    5.0093 O.co2     1 <0>        -0.6955
     10 N1          3.2874   -1.7759    5.1336 N.am      1 <0>        -0.7121
     11 C6          3.8511   -1.6033    3.9216 C.2       1 <0>         0.7150
     12 O3          3.2435   -1.9213    2.9176 O.2       1 <0>        -0.5943
     13 N2          5.0884   -1.0780    3.8225 N.am      1 <0>        -0.6359
     14 C7          5.6766   -0.7742    2.5092 C.3       1 <0>         0.1401
     15 C8          6.1886    0.6700    2.5274 C.3       1 <0>         0.0399
     16 N3          7.0937    0.8508    3.6702 N.3       1 <0>        -0.5268
     17 C9          6.3900    0.6515    4.9442 C.3       1 <0>         0.0360
     18 C10         5.8838   -0.7878    5.0252 C.3       1 <0>         0.1230
     19 C11         7.7400    2.1693    3.6265 C.3       1 <0>         0.0532
     20 C12         8.8503    2.2282    4.6774 C.3       1 <0>         0.0801
     21 O4          9.8764    1.2929    4.3392 O.3       1 <0>        -0.5585
     22 H2          4.4168   -6.1673    8.0069 H         1 <0>         0.0727
     23 H3          3.3051   -7.0490    9.0817 H         1 <0>         0.0974
     24 H4          3.0735   -7.1102    7.3179 H         1 <0>         0.0736
     25 H5          3.6057   -3.9326    6.5298 H         1 <0>         0.0771
     26 H6          2.2624   -4.8756    5.8408 H         1 <0>         0.0802
     27 H7          0.6469   -3.2026    6.7009 H         1 <0>         0.0915
     28 H8          1.9901   -2.2596    7.3899 H         1 <0>         0.0704
     29 H9          3.7987   -1.5918    5.9370 H         1 <0>         0.3851
     30 H10         6.5056   -1.4542    2.3131 H         1 <0>         0.0667
     31 H11         4.9181   -0.8840    1.7340 H         1 <0>         0.0945
     32 H12         6.7256    0.8773    1.6018 H         1 <0>         0.0842
     33 H13         5.3449    1.3539    2.6199 H         1 <0>         0.0412
     34 H14         7.0730    0.8453    5.7712 H         1 <0>         0.0836
     35 H15         5.5435    1.3356    5.0030 H         1 <0>         0.0438
     36 H16         5.2623   -0.9066    5.9127 H         1 <0>         0.0792
     37 H17         6.7331   -1.4691    5.0756 H         1 <0>         0.0705
     38 H18         8.1672    2.3319    2.6370 H         1 <0>         0.0820
     39 H19         7.0011    2.9432    3.8348 H         1 <0>         0.0486
     40 H20         9.2703    3.2336    4.7063 H         1 <0>         0.0462
     41 H21         8.4387    1.9781    5.6553 H         1 <0>         0.0469
     42 H22        10.6146    1.2759    4.9636 H         1 <0>         0.3720
@<TRIPOS>BOND
     1    1    2 1
     2    1   22 1
     3    1   23 1
     4    1   24 1
     5    2    3 1
     6    3    4 1
     7    3   25 1
     8    3   26 1
     9    4    5 1
    10    4   27 1
    11    4   28 1
    12    5    6 1
    13    5    7 1
    14    5   10 1
    15    7    8 2
    16    7    9 1
    17   10   11 am
    18   10   29 1
    19   11   12 2
    20   11   13 am
    21   13   18 1
    22   13   14 1
    23   14   15 1
    24   14   30 1
    25   14   31 1
    26   15   16 1
    27   15   32 1
    28   15   33 1
    29   16   17 1
    30   16   19 1
    31   17   18 1
    32   17   34 1
    33   17   35 1
    34   18   36 1
    35   18   37 1
    36   19   20 1
    37   19   38 1
    38   19   39 1
    39   20   21 1
    40   20   40 1
    41   20   41 1
    42   21   42 1
@<TRIPOS>MOLECULE
ZINC43703039
   35    36     0     0     0
SMALL
USER_CHARGES

@<TRIPOS>ATOM
      1 C1         -0.0180    1.4606    0.0100 C.3       1 <0>         0.0609
      2 N1          0.0010   -0.0042    0.0021 N.pl3     1 <0>        -0.4004
      3 C2         -0.0899   -0.7900   -1.0984 C.2       1 <0>         0.1388
      4 C3         -0.0367   -2.0882   -0.7155 C.2       1 <0>        -0.7507
      5 C4          0.0924   -2.1199    0.6765 C.2       1 <0>        -0.0416
      6 C5          0.1200   -0.8116    1.1106 C.2       1 <0>        -0.0636
      7 C6          0.2492   -0.3619    2.5008 C.2       1 <0>         0.5996
      8 O1          0.1697    0.8229    2.7670 O.2       1 <0>        -0.5549
      9 N2          0.4559   -1.2609    3.4834 N.am      1 <0>        -0.8384
     10 S1         -0.1160   -3.4885   -1.7821 S.o2      1 <0>         2.7172
     11 O2         -0.5813   -4.5745   -0.9926 O.2       1 <0>        -0.9541
     12 O3         -0.7840   -3.0630   -2.9619 O.2       1 <0>        -0.9678
     13 N3          1.4371   -3.8559   -2.2240 N.pl3     1 <0>        -0.9988
     14 C7          2.0469   -3.2537   -3.4201 C.3       1 <0>         0.0893
     15 C8          3.4078   -2.6681   -3.0263 C.3       1 <0>         0.0399
     16 O4          4.1765   -3.6715   -2.3585 O.3       1 <0>        -0.3450
     17 C9          3.5993   -4.1332   -1.1348 C.3       1 <0>         0.0136
     18 H1          3.4516   -3.2895   -0.4608 H         1 <0>         0.0534
     19 C10         2.2502   -4.7896   -1.4287 C.3       1 <0>         0.1131
     20 C11         4.5208   -5.1368   -0.4908 C.2       1 <0>         0.5071
     21 O5          5.5746   -5.4301   -1.0291 O.co2     1 <0>        -0.6693
     22 O6          4.2124   -5.6554    0.5687 O.co2     1 <0>        -0.6876
     23 H2          1.0049    1.8372    0.0119 H         1 <0>         0.0829
     24 H3         -0.5365    1.8221   -0.8780 H         1 <0>         0.0895
     25 H4         -0.5364    1.8125    0.9019 H         1 <0>         0.1048
     26 H5         -0.1886   -0.4385   -2.1148 H         1 <0>         0.1882
     27 H6          0.1611   -3.0027    1.2948 H         1 <0>         0.1627
     28 H7          0.5924   -2.1960    3.2644 H         1 <0>         0.4094
     29 H8          0.4683   -0.9729    4.4096 H         1 <0>         0.4105
     30 H9          2.1836   -4.0168   -4.1863 H         1 <0>         0.0812
     31 H10         1.4027   -2.4613   -3.8013 H         1 <0>         0.0896
     32 H11         3.9360   -2.3405   -3.9217 H         1 <0>         0.0969
     33 H12         3.2594   -1.8190   -2.3591 H         1 <0>         0.0432
     34 H13         1.7405   -5.0138   -0.4916 H         1 <0>         0.1013
     35 H14         2.4076   -5.7100   -1.9909 H         1 <0>         0.0790
@<TRIPOS>BOND
     1    1    2 1
     2    1   23 1
     3    1   24 1
     4    1   25 1
     5    2    6 1
     6    2    3 1
     7    3    4 2
     8    3   26 1
     9    4    5 1
    10    4   10 1
    11    5    6 2
    12    5   27 1
    13    6    7 1
    14    7    8 2
    15    7    9 am
    16    9   28 1
    17    9   29 1
    18   10   11 2
    19   10   12 2
    20   10   13 1
    21   13   19 1
    22   13   14 1
    23   14   15 1
    24   14   30 1
    25   14   31 1
    26   15   16 1
    27   15   32 1
    28   15   33 1
    29   16   17 1
    30   17   18 1
    31   17   19 1
    32   17   20 1
    33   19   34 1
    34   19   35 1
    35   20   21 2
    36   20   22 1
@<TRIPOS>MOLECULE
ZINC62173995
   40    41     0     0     0
SMALL
USER_CHARGES

@<TRIPOS>ATOM
      1 C1          0.1729    1.4915    0.0824 C.3       1 <0>        -0.1108
      2 C2          0.1006   -0.0136    0.0591 C.ar      1 <0>        -0.1198
      3 C3          0.1306   -0.6882   -1.1461 C.ar      1 <0>        -0.0682
      4 C4          0.0660   -2.0710   -1.1747 C.ar      1 <0>        -0.1947
      5 C5         -0.0272   -2.7807    0.0099 C.ar      1 <0>         0.1460
      6 C6         -0.0600   -2.0980    1.2214 C.ar      1 <0>        -0.1454
      7 C7          0.0099   -0.7198    1.2441 C.ar      1 <0>        -0.0436
      8 C8         -0.0183    0.0150    2.5595 C.3       1 <0>        -0.1172
      9 O1         -0.0819   -4.1379    0.0287 O.3       1 <0>        -0.2940
     10 C9         -0.4175   -4.8096   -1.1862 C.3       1 <0>         0.0539
     11 C10         0.4603   -4.2447   -2.3103 C.3       1 <0>        -0.0199
     12 H1          1.5112   -4.3296   -2.0337 H         1 <0>         0.1918
     13 C11         0.0966   -2.7712   -2.5096 C.3       1 <0>         0.1394
     14 H2          0.8402   -2.2976   -3.1506 H         1 <0>         0.0961
     15 O2         -1.1896   -2.6778   -3.1253 O.3       1 <0>        -0.5615
     16 N1          0.2136   -4.9889   -3.5526 N.4       1 <0>        -0.3174
     17 C12         0.9790   -4.3796   -4.6485 C.3       1 <0>        -0.0940
     18 C13         0.6008   -5.0364   -5.9511 C.2       1 <0>         0.4965
     19 O3         -0.2294   -5.9292   -5.9652 O.co2     1 <0>        -0.6847
     20 O4          1.1249   -4.6749   -6.9908 O.co2     1 <0>        -0.6595
     21 C14         0.6346   -6.3854   -3.3786 C.3       1 <0>        -0.0910
     22 C15         2.0876   -6.4263   -2.9811 C.2       1 <0>         0.4971
     23 O5          2.7435   -5.3987   -2.9617 O.co2     1 <0>        -0.6719
     24 O6          2.6074   -7.4870   -2.6789 O.co2     1 <0>        -0.6503
     25 H3          1.2156    1.8044    0.1367 H         1 <0>         0.0696
     26 H4         -0.2796    1.8911   -0.8252 H         1 <0>         0.0651
     27 H5         -0.3651    1.8677    0.9526 H         1 <0>         0.0677
     28 H6          0.2045   -0.1343   -2.0703 H         1 <0>         0.1277
     29 H7         -0.1359   -2.6484    2.1476 H         1 <0>         0.1342
     30 H8         -1.0505    0.2410    2.8273 H         1 <0>         0.0738
     31 H9          0.4298   -0.6082    3.3335 H         1 <0>         0.0697
     32 H10         0.5453    0.9436    2.4692 H         1 <0>         0.0722
     33 H11        -0.2326   -5.8783   -1.0780 H         1 <0>         0.1255
     34 H12        -1.4684   -4.6403   -1.4209 H         1 <0>         0.0841
     35 H13        -1.4841   -1.7708   -3.2852 H         1 <0>         0.3926
     36 H14         0.7544   -3.3142   -4.7001 H         1 <0>         0.1047
     37 H15         2.0450   -4.5179   -4.4679 H         1 <0>         0.1637
     38 H16         0.0316   -6.8524   -2.5999 H         1 <0>         0.1077
     39 H17         0.4990   -6.9252   -4.3158 H         1 <0>         0.1552
     40 H18        -0.7707   -4.9592   -3.7726 H         1 <0>         0.4095
@<TRIPOS>BOND
     1    1    2 1
     2    1   25 1
     3    1   26 1
     4    1   27 1
     5    2    7 ar
     6    2    3 ar
     7    3    4 ar
     8    3   28 1
     9    4   13 1
    10    4    5 ar
    11    5    6 ar
    12    5    9 1
    13    6    7 ar
    14    6   29 1
    15    7    8 1
    16    8   30 1
    17    8   31 1
    18    8   32 1
    19    9   10 1
    20   10   11 1
    21   10   33 1
    22   10   34 1
    23   11   12 1
    24   11   13 1
    25   11   16 1
    26   13   14 1
    27   13   15 1
    28   15   35 1
    29   16   17 1
    30   16   21 1
    31   16   40 1
    32   17   18 1
    33   17   36 1
    34   17   37 1
    35   18   19 2
    36   18   20 1
    37   21   22 1
    38   21   38 1
    39   21   39 1
    40   22   23 2
    41   22   24 1
@<TRIPOS>MOLECULE
ZINC13013431
   57    60     0     0     0
SMALL
USER_CHARGES
(2S)-2-[[4-[C-methyl-N-[(9-oxo2,3-dihydro-1H-pyrrolo[2,1-b]quinazoline-6-carbonyl)amino]carbonimidoyl]phenyl]sulfonylamino]propanoic acid
@<TRIPOS>ATOM
      1 C1          6.4398   15.8313    2.4926 C.3       1 <0>        -0.1485
      2 C2          5.5144   14.6129    2.4827 C.3       1 <0>         0.1057
      3 H1          6.0530   13.7508    2.0894 H         1 <0>         0.0812
      4 C3          5.0546   14.3199    3.8876 C.2       1 <0>         0.4634
      5 O1          3.8764   14.3404    4.1543 O.co2     1 <0>        -0.6273
      6 N1          4.3513   14.8899    1.6361 N.pl3     1 <0>        -1.0874
      7 S1          4.3481   14.4107    0.0509 S.o2      1 <0>         2.6919
      8 O2          5.5799   14.8464   -0.5076 O.2       1 <0>        -0.9607
      9 O3          3.0898   14.7942   -0.4867 O.2       1 <0>        -0.9679
     10 C4          4.3849   12.6491    0.0392 C.ar      1 <0>        -0.6573
     11 C5          3.1993   11.9356    0.0447 C.ar      1 <0>        -0.0171
     12 C6          3.2205   10.5565    0.0356 C.ar      1 <0>        -0.0999
     13 C7          4.4428    9.8802    0.0208 C.ar      1 <0>        -0.0016
     14 C8          5.6357   10.6071    0.0207 C.ar      1 <0>        -0.1135
     15 C9          5.5992   11.9859    0.0241 C.ar      1 <0>        -0.0237
     16 C10         4.4736    8.4059    0.0115 C.2       1 <0>         0.1383
     17 N2          3.3634    7.7335    0.0171 N.2       1 <0>        -0.2202
     18 N3          3.3927    6.3328    0.0083 N.am      1 <0>        -0.5769
     19 C11         2.2399    5.6346    0.0140 C.2       1 <0>         0.5748
     20 O4          1.1747    6.2202    0.0269 O.2       1 <0>        -0.4849
     21 C12         2.2708    4.1551    0.0047 C.ar      1 <0>        -0.0808
     22 C13         3.5008    3.4858   -0.0101 C.ar      1 <0>        -0.1133
     23 C14         3.5485    2.1209   -0.0190 C.ar      1 <0>        -0.0392
     24 C15         2.3647    1.3854   -0.0137 C.ar      1 <0>        -0.1789
     25 C16         1.1158    2.0447    0.0024 C.ar      1 <0>         0.1656
     26 C17         1.0791    3.4403    0.0103 C.ar      1 <0>        -0.0424
     27 N4         -0.0156    1.3022    0.0092 N.2       1 <0>        -0.5211
     28 C18         0.0021   -0.0041    0.0020 C.2       1 <0>         0.3928
     29 N5          1.1597   -0.7180   -0.0166 N.am      1 <0>        -0.5564
     30 C19         2.3608   -0.0847   -0.0232 C.2       1 <0>         0.5559
     31 O5          3.4021   -0.7147   -0.0361 O.2       1 <0>        -0.5065
     32 C20         0.8868   -2.1653   -0.0282 C.3       1 <0>         0.0925
     33 C21        -0.5778   -2.3150    0.4320 C.3       1 <0>        -0.1317
     34 C22        -1.1819   -0.9576    0.0126 C.3       1 <0>        -0.0755
     35 C23         5.7941    7.6799   -0.0044 C.3       1 <0>        -0.1602
     36 H2          7.3051   15.6252    3.1225 H         1 <0>         0.0730
     37 H3          6.7723   16.0432    1.4764 H         1 <0>         0.0586
     38 H4          5.9012   16.6935    2.8859 H         1 <0>         0.0538
     39 H5          3.5831   15.3541    2.0040 H         1 <0>         0.4226
     40 H6          2.2551   12.4598    0.0558 H         1 <0>         0.1457
     41 H7          2.2944   10.0008    0.0396 H         1 <0>         0.1443
     42 H8          6.5843   10.0907    0.0138 H         1 <0>         0.1395
     43 H9          6.5207   12.5492    0.0192 H         1 <0>         0.1469
     44 H10         4.2427    5.8655   -0.0020 H         1 <0>         0.3869
     45 H11         4.4195    4.0537   -0.0142 H         1 <0>         0.1351
     46 H12         4.5014    1.6126   -0.0306 H         1 <0>         0.1469
     47 H13         0.1324    3.9600    0.0217 H         1 <0>         0.1592
     48 H14         1.5536   -2.6800    0.6636 H         1 <0>         0.0970
     49 H15         1.0077   -2.5634   -1.0357 H         1 <0>         0.0922
     50 H16        -0.6352   -2.4501    1.5121 H         1 <0>         0.0914
     51 H17        -1.0680   -3.1374   -0.0889 H         1 <0>         0.1074
     52 H18        -1.9269   -0.6317    0.7385 H         1 <0>         0.1157
     53 H19        -1.6230   -1.0281   -0.9817 H         1 <0>         0.1151
     54 H20         6.1035    7.5112   -1.0359 H         1 <0>         0.0917
     55 H21         6.5458    8.2816    0.5066 H         1 <0>         0.0966
     56 H22         5.6882    6.7218    0.5045 H         1 <0>         0.0700
     57 O6          5.9541   14.0362    4.8427 O.co2     1 <0>        -0.7589
@<TRIPOS>BOND
     1    1    2 1
     2    1   36 1
     3    1   37 1
     4    1   38 1
     5    2    3 1
     6    2    4 1
     7    2    6 1
     8    4    5 2
     9    4   57 1
    10    6    7 1
    11    6   39 1
    12    7    8 2
    13    7    9 2
    14    7   10 1
    15   10   15 ar
    16   10   11 ar
    17   11   12 ar
    18   11   40 1
    19   12   13 ar
    20   12   41 1
    21   13   14 ar
    22   13   16 1
    23   14   15 ar
    24   14   42 1
    25   15   43 1
    26   16   17 2
    27   16   35 1
    28   17   18 1
    29   18   19 am
    30   18   44 1
    31   19   20 2
    32   19   21 1
    33   21   26 ar
    34   21   22 ar
    35   22   23 ar
    36   22   45 1
    37   23   24 ar
    38   23   46 1
    39   24   30 1
    40   24   25 ar
    41   25   26 ar
    42   25   27 1
    43   26   47 1
    44   27   28 2
    45   28   34 1
    46   28   29 1
    47   29   30 am
    48   29   32 1
    49   30   31 2
    50   32   33 1
    51   32   48 1
    52   32   49 1
    53   33   34 1
    54   33   50 1
    55   33   51 1
    56   34   52 1
    57   34   53 1
    58   35   54 1
    59   35   55 1
    60   35   56 1
@<TRIPOS>MOLECULE
ZINC13211835
   43    44     0     0     0
SMALL
USER_CHARGES
1-[2-(2-cyanoethylamino)-5-nitro-phenyl]sulfonylpiperidine-4-carboxylic acid
@<TRIPOS>ATOM
      1 C1         -1.9390    3.8724   -0.6048 C.ar      1 <0>         0.0352
      2 C2         -1.7972    2.9848    0.4439 C.ar      1 <0>        -0.2053
      3 C3         -2.7861    2.0417    0.6920 C.ar      1 <0>         0.3534
      4 C4         -3.9178    1.9984   -0.1128 C.ar      1 <0>        -0.7519
      5 C5         -4.0558    2.8923   -1.1561 C.ar      1 <0>         0.0950
      6 C6         -3.0690    3.8302   -1.4003 C.ar      1 <0>        -0.1210
      7 N1         -3.2204    4.7869   -2.5194 N.pl3     1 <0>         0.0395
      8 O1         -4.2130    4.7476   -3.2241 O.2       1 <0>        -0.1643
      9 O2         -2.3546    5.6166   -2.7326 O.3       1 <0>        -0.1710
     10 S1         -5.1758    0.8043    0.1978 S.o2      1 <0>         2.6884
     11 O3         -6.1938    1.0262   -0.7685 O.2       1 <0>        -0.9404
     12 O4         -4.5204   -0.4485    0.3400 O.2       1 <0>        -0.9539
     13 N2         -5.8373    1.1625    1.6730 N.pl3     1 <0>        -0.9912
     14 C7         -5.3887    0.4627    2.8845 C.3       1 <0>         0.1103
     15 C8         -6.6040   -0.1293    3.5960 C.3       1 <0>        -0.1072
     16 C9         -7.6309    0.9760    3.8521 C.3       1 <0>        -0.1265
     17 C10        -8.0908    1.5667    2.5173 C.3       1 <0>        -0.1081
     18 C11        -6.8884    2.1819    1.7944 C.3       1 <0>         0.1186
     19 C12        -8.8171    0.4000    4.5816 C.2       1 <0>         0.4638
     20 O5         -9.9172    0.4561    4.0850 O.co2     1 <0>        -0.6369
     21 N3         -2.6435    1.1392    1.7484 N.pl3     1 <0>        -0.7259
     22 C13        -1.5061    1.2571    2.6641 C.3       1 <0>         0.1148
     23 C14        -1.5867    0.1549    3.7222 C.3       1 <0>        -0.0453
     24 C15        -0.4438    0.2734    4.6422 C.1       1 <0>         0.2088
     25 N4          0.4382    0.3649    5.3523 N.1       1 <0>        -0.4178
     26 H1         -1.1681    4.6029   -0.8012 H         1 <0>         0.1598
     27 H2         -0.9162    3.0212    1.0676 H         1 <0>         0.1547
     28 H3         -4.9351    2.8590   -1.7823 H         1 <0>         0.1720
     29 H4         -4.7014   -0.3378    2.6106 H         1 <0>         0.0841
     30 H5         -4.8870    1.1666    3.5485 H         1 <0>         0.0730
     31 H6         -6.2943   -0.5654    4.5457 H         1 <0>         0.0870
     32 H7         -7.0493   -0.9014    2.9686 H         1 <0>         0.0646
     33 H8         -7.1772    1.7597    4.4589 H         1 <0>         0.0705
     34 H9         -8.8394    2.3378    2.6994 H         1 <0>         0.0782
     35 H10        -8.5222    0.7787    1.9001 H         1 <0>         0.0703
     36 H11        -6.5116    3.0289    2.3677 H         1 <0>         0.0693
     37 H12        -7.1904    2.5155    0.8016 H         1 <0>         0.0884
     38 H13        -3.2976    0.4343    1.8758 H         1 <0>         0.4119
     39 H14        -0.5766    1.1557    2.1039 H         1 <0>         0.0866
     40 H15        -1.5319    2.2316    3.1519 H         1 <0>         0.0887
     41 H16        -2.5162    0.2563    4.2824 H         1 <0>         0.1254
     42 H17        -1.5609   -0.8195    3.2344 H         1 <0>         0.1248
     43 O6         -8.6516   -0.1754    5.7829 O.co2     1 <0>        -0.7708
@<TRIPOS>BOND
     1    1    6 ar
     2    1    2 ar
     3    1   26 1
     4    2    3 ar
     5    2   27 1
     6    3    4 ar
     7    3   21 1
     8    4    5 ar
     9    4   10 1
    10    5    6 ar
    11    5   28 1
    12    6    7 1
    13    7    8 2
    14    7    9 1
    15   10   11 2
    16   10   12 2
    17   10   13 1
    18   13   18 1
    19   13   14 1
    20   14   15 1
    21   14   29 1
    22   14   30 1
    23   15   16 1
    24   15   31 1
    25   15   32 1
    26   16   17 1
    27   16   19 1
    28   16   33 1
    29   17   18 1
    30   17   34 1
    31   17   35 1
    32   18   36 1
    33   18   37 1
    34   19   20 2
    35   19   43 1
    36   21   22 1
    37   21   38 1
    38   22   23 1
    39   22   39 1
    40   22   40 1
    41   23   24 1
    42   23   41 1
    43   23   42 1
    44   24   25 3
@<TRIPOS>MOLECULE
ZINC32629447
   38    39     0     0     0
SMALL
USER_CHARGES
4-methylsulfonyl-N'-(2-nitrophenyl)sulfonyl-benzohydrazide
@<TRIPOS>ATOM
      1 C1          1.2637    8.3384    3.6385 C.3       1 <0>        -0.6540
      2 S1          1.0427    8.0961    1.8543 S.o2      1 <0>         2.5022
      3 O1          2.2652    7.6792    1.2619 O.2       1 <0>        -0.9407
      4 O2          0.3009    9.1750    1.3021 O.2       1 <0>        -0.9395
      5 C2         -0.0233    6.7000    1.7156 C.ar      1 <0>        -0.6561
      6 C3         -1.3945    6.8812    1.6808 C.ar      1 <0>        -0.0296
      7 C4         -2.2347    5.7925    1.5714 C.ar      1 <0>        -0.0893
      8 C5         -1.6986    4.5060    1.4961 C.ar      1 <0>        -0.0469
      9 C6         -0.3146    4.3297    1.5375 C.ar      1 <0>        -0.1186
     10 C7          0.5146    5.4274    1.6413 C.ar      1 <0>        -0.0306
     11 C8         -2.5930    3.3346    1.3792 C.2       1 <0>         0.5354
     12 O3         -3.7981    3.4907    1.3485 O.2       1 <0>        -0.5298
     13 N1         -2.0722    2.0936    1.3067 N.am      1 <0>        -0.5047
     14 N2         -2.9198    0.9836    1.1959 N.2       1 <0>        -0.7809
     15 S2         -2.7437   -0.0696   -0.0699 S.o2      1 <0>         2.5020
     16 O4         -2.8295    0.7053   -1.2579 O.2       1 <0>        -1.0416
     17 O5         -3.6110   -1.1649    0.1895 O.2       1 <0>        -0.9713
     18 C9         -1.1002   -0.7006    0.0022 C.ar      1 <0>        -0.6034
     19 C10        -0.2195   -0.4556   -1.0351 C.ar      1 <0>        -0.0429
     20 C11         1.0698   -0.9502   -0.9783 C.ar      1 <0>        -0.0986
     21 C12         1.4790   -1.6899    0.1157 C.ar      1 <0>        -0.0957
     22 C13         0.5998   -1.9315    1.1545 C.ar      1 <0>        -0.0814
     23 C14        -0.6914   -1.4408    1.0955 C.ar      1 <0>         0.0409
     24 N3         -1.6342   -1.7030    2.2060 N.pl3     1 <0>        -0.0003
     25 O6         -1.3165   -2.4551    3.1099 O.2       1 <0>        -0.2124
     26 O7         -2.7258   -1.1629    2.2186 O.3       1 <0>        -0.0380
     27 H1          0.3117    8.6607    4.0854 H         1 <0>         0.1338
     28 H2          2.0295    9.1088    3.8118 H         1 <0>         0.1318
     29 H3          1.5839    7.3927    4.1001 H         1 <0>         0.1331
     30 H4         -1.8081    7.8772    1.7392 H         1 <0>         0.1453
     31 H5         -3.3049    5.9353    1.5437 H         1 <0>         0.1475
     32 H6          0.1063    3.3366    1.4841 H         1 <0>         0.1337
     33 H7          1.5858    5.2928    1.6690 H         1 <0>         0.1436
     34 H8         -0.9817    1.9523    1.3345 H         1 <0>         0.3688
     35 H9         -0.5390    0.1224   -1.8896 H         1 <0>         0.1541
     36 H10         1.7579   -0.7586   -1.7885 H         1 <0>         0.1407
     37 H11         2.4866   -2.0761    0.1602 H         1 <0>         0.1433
     38 H12         0.9205   -2.5061    2.0108 H         1 <0>         0.1502
@<TRIPOS>BOND
     1    1    2 1
     2    1   27 1
     3    1   28 1
     4    1   29 1
     5    2    3 2
     6    2    4 2
     7    2    5 1
     8    5   10 ar
     9    5    6 ar
    10    6    7 ar
    11    6   30 1
    12    7    8 ar
    13    7   31 1
    14    8    9 ar
    15    8   11 1
    16    9   10 ar
    17    9   32 1
    18   10   33 1
    19   11   12 2
    20   11   13 am
    21   13   14 1
    22   13   34 1
    23   14   15 1
    24   15   16 2
    25   15   17 2
    26   15   18 1
    27   18   23 ar
    28   18   19 ar
    29   19   20 ar
    30   19   35 1
    31   20   21 ar
    32   20   36 1
    33   21   22 ar
    34   21   37 1
    35   22   23 ar
    36   22   38 1
    37   23   24 1
    38   24   25 2
    39   24   26 1
@<TRIPOS>MOLECULE
ZINC33457748
   45    48     0     0     0
SMALL
USER_CHARGES

@<TRIPOS>ATOM
      1 C1         -0.0167    1.3783    0.0096 C.ar      1 <0>        -0.0878
      2 C2          1.1693    2.0866    0.0021 C.ar      1 <0>        -0.0888
      3 C3          2.3807    1.4090   -0.0131 C.ar      1 <0>         0.1386
      4 C4          2.3963    0.0207   -0.0206 C.ar      1 <0>        -0.0861
      5 C5          1.2074   -0.6820   -0.0130 C.ar      1 <0>        -0.0277
      6 C6          0.0021   -0.0041    0.0020 C.ar      1 <0>        -0.0665
      7 N1          1.2233   -2.1620   -0.0216 N.pl3     1 <0>         0.0344
      8 O1          2.2766   -2.7552   -0.0352 O.2       1 <0>        -0.1513
      9 O2          0.1828   -2.7777   -0.0150 O.3       1 <0>        -0.1545
     10 N2          3.5860    2.1251   -0.0212 N.am      1 <0>        -0.5429
     11 C7          4.8235    1.5308   -0.0421 C.2       1 <0>         0.5937
     12 O3          5.0828    0.3698   -0.2754 O.2       1 <0>        -0.4303
     13 C8          5.7468    2.5923    0.2741 C.3       1 <0>        -0.2090
     14 H1          5.5645    2.7561    1.3362 H         1 <0>         0.1284
     15 C9          7.1721    2.9382    0.1368 C.3       1 <0>         0.1856
     16 H2          7.5035    2.8200   -0.8949 H         1 <0>         0.1708
     17 N3          7.1853    4.3862    0.5420 N.4       1 <0>        -0.4857
     18 C10         5.8101    4.9308    0.3356 C.3       1 <0>         0.0300
     19 C11         5.0603    3.8299   -0.4296 C.3       1 <0>        -0.1029
     20 H3          5.1984    3.8671   -1.5102 H         1 <0>         0.1684
     21 C12         3.6557    3.4895   -0.0150 C.2       1 <0>         0.5520
     22 O4          2.7692    4.2662    0.2684 O.2       1 <0>        -0.3959
     23 C13         5.1466    5.2193    1.6837 C.3       1 <0>        -0.1998
     24 C14         5.9488    6.2565    2.4266 C.2       1 <0>         0.4887
     25 O5          6.9575    6.7219    1.9243 O.co2     1 <0>        -0.6674
     26 O6          5.5889    6.6303    3.5299 O.co2     1 <0>        -0.6794
     27 C15         5.8652    6.1846   -0.4988 C.2       1 <0>         0.5295
     28 O7          6.9403    6.6202   -0.8741 O.co2     1 <0>        -0.6484
     29 O8          4.8348    6.7633   -0.7984 O.co2     1 <0>        -0.6380
     30 C16         8.0187    2.1104    1.0691 C.2       1 <0>        -0.2257
     31 C17         8.7568    1.0068    0.7980 C.2       1 <0>        -0.0782
     32 C18         9.4627    0.4035    1.8225 C.2       1 <0>        -0.1462
     33 C19         9.3949    0.9350    3.0688 C.2       1 <0>        -0.0935
     34 S1          8.3152    2.3340    2.8153 S.3       1 <0>         0.1322
     35 Cl1        10.1640    0.3982    4.5296 Cl        1 <0>         0.0329
     36 H4         -0.9594    1.9050    0.0259 H         1 <0>         0.1596
     37 H5          1.1541    3.1665    0.0077 H         1 <0>         0.1713
     38 H6          3.3373   -0.5092   -0.0328 H         1 <0>         0.1787
     39 H7         -0.9264   -0.5557    0.0082 H         1 <0>         0.1587
     40 H8          7.4421    4.4665    1.5145 H         1 <0>         0.4232
     41 H9          4.1355    5.5914    1.5189 H         1 <0>         0.1203
     42 H10         5.1050    4.3024    2.2718 H         1 <0>         0.0559
     43 H11         8.7929    0.6041   -0.2035 H         1 <0>         0.1558
     44 H12        10.0584   -0.4773    1.6336 H         1 <0>         0.1543
     45 H13         7.8434    4.8949   -0.0291 H         1 <0>         0.4429
@<TRIPOS>BOND
     1    1    6 ar
     2    1    2 ar
     3    1   36 1
     4    2    3 ar
     5    2   37 1
     6    3    4 ar
     7    3   10 1
     8    4    5 ar
     9    4   38 1
    10    5    6 ar
    11    5    7 1
    12    6   39 1
    13    7    8 2
    14    7    9 1
    15   10   21 am
    16   10   11 am
    17   11   12 2
    18   11   13 1
    19   13   14 1
    20   13   19 1
    21   13   15 1
    22   15   16 1
    23   15   17 1
    24   15   30 1
    25   17   18 1
    26   17   40 1
    27   17   45 1
    28   18   19 1
    29   18   23 1
    30   18   27 1
    31   19   20 1
    32   19   21 1
    33   21   22 2
    34   23   24 1
    35   23   41 1
    36   23   42 1
    37   24   25 2
    38   24   26 1
    39   27   28 2
    40   27   29 1
    41   30   34 1
    42   30   31 2
    43   31   32 1
    44   31   43 1
    45   32   33 2
    46   32   44 1
    47   33   34 1
    48   33   35 1
@<TRIPOS>MOLECULE
ZINC64475554
   39    41     0     0     0
SMALL
USER_CHARGES

@<TRIPOS>ATOM
      1 C1         -0.0178    1.4608    0.0101 C.3       1 <0>         0.0826
      2 N1          0.0021   -0.0041    0.0020 N.pl3     1 <0>        -1.1197
      3 S1          0.7421   -0.8289    1.2326 S.o2      1 <0>         2.6988
      4 O1          0.5703   -2.2120    0.9554 O.2       1 <0>        -0.9528
      5 O2          2.0239   -0.2396    1.4033 O.2       1 <0>        -0.9583
      6 C2         -0.1663   -0.4937    2.7047 C.ar      1 <0>        -0.7031
      7 C3          0.1724    0.5893    3.4945 C.ar      1 <0>         0.0130
      8 C4         -0.5402    0.8522    4.6492 C.ar      1 <0>        -0.1622
      9 C5         -1.5920    0.0325    5.0142 C.ar      1 <0>         0.0330
     10 C6         -1.9313   -1.0496    4.2241 C.ar      1 <0>        -0.6366
     11 C7         -1.2212   -1.3101    3.0668 C.ar      1 <0>         0.0777
     12 S2         -3.2714   -2.0946    4.6895 S.o2      1 <0>         2.6003
     13 O3         -3.0392   -3.3526    4.0710 O.2       1 <0>        -1.0149
     14 O4         -3.4271   -1.9538    6.0949 O.2       1 <0>        -1.0182
     15 N2         -4.6409   -1.4723    3.9969 N.2       1 <0>        -1.0723
     16 C8         -5.8733   -2.1022    4.1961 C.ar      1 <0>         0.2415
     17 C9         -7.0306   -1.5893    3.6127 C.ar      1 <0>        -0.1300
     18 C10        -8.2274   -2.2459    3.8368 C.ar      1 <0>        -0.0960
     19 C11        -8.2363   -3.3864    4.6302 C.ar      1 <0>         0.2204
     20 N3         -7.1187   -3.8455    5.1685 N.ar      1 <0>        -0.4490
     21 C12        -5.9590   -3.2495    4.9727 C.ar      1 <0>        -0.0144
     22 N4         -9.4426   -4.0574    4.8631 N.pl3     1 <0>        -0.2938
     23 C13        -9.6197   -5.1662    5.6084 C.2       1 <0>         0.2691
     24 N5        -10.8901   -5.4775    5.5754 N.2       1 <0>        -0.5557
     25 C14       -11.5522   -4.5976    4.8247 C.2       1 <0>         0.1895
     26 N6        -10.7104   -3.7058    4.3717 N.2       1 <0>        -0.3181
     27 H1          1.0048    1.8381    0.0023 H         1 <0>         0.0682
     28 H2         -0.5450    1.8219   -0.8730 H         1 <0>         0.0843
     29 H3         -0.5280    1.8123    0.9069 H         1 <0>         0.0608
     30 H4         -0.4183   -0.4908   -0.7241 H         1 <0>         0.4212
     31 H5          0.9941    1.2296    3.2095 H         1 <0>         0.1436
     32 H6         -0.2751    1.6978    5.2666 H         1 <0>         0.1399
     33 H7         -2.1484    0.2375    5.9169 H         1 <0>         0.1471
     34 H8         -1.4886   -2.1535    2.4474 H         1 <0>         0.1545
     35 H9         -6.9939   -0.7004    3.0005 H         1 <0>         0.1374
     36 H10        -9.1437   -1.8762    3.4007 H         1 <0>         0.1346
     37 H11        -5.0665   -3.6559    5.4251 H         1 <0>         0.1405
     38 H12        -8.8481   -5.7040    6.1393 H         1 <0>         0.2201
     39 H13       -12.6137   -4.6156    4.6267 H         1 <0>         0.2170
@<TRIPOS>BOND
     1    1    2 1
     2    1   27 1
     3    1   28 1
     4    1   29 1
     5    2    3 1
     6    2   30 1
     7    3    4 2
     8    3    5 2
     9    3    6 1
    10    6   11 ar
    11    6    7 ar
    12    7    8 ar
    13    7   31 1
    14    8    9 ar
    15    8   32 1
    16    9   10 ar
    17    9   33 1
    18   10   11 ar
    19   10   12 1
    20   11   34 1
    21   12   13 2
    22   12   14 2
    23   12   15 1
    24   15   16 1
    25   16   21 ar
    26   16   17 ar
    27   17   18 ar
    28   17   35 1
    29   18   19 ar
    30   18   36 1
    31   19   20 ar
    32   19   22 1
    33   20   21 ar
    34   21   37 1
    35   22   26 1
    36   22   23 1
    37   23   24 2
    38   23   38 1
    39   24   25 1
    40   25   26 2
    41   25   39 1
@<TRIPOS>MOLECULE
ZINC21796081
   34    34     0     0     0
SMALL
USER_CHARGES
(2S)-2-[(4,5-dimethyl-2-nitro-phenyl)sulfonylamino]-3-hydroxy-propanoic acid
@<TRIPOS>ATOM
      1 C1          3.6942   -0.1717    1.2267 C.3       1 <0>        -0.1209
      2 C2          2.3383    0.3432    0.8177 C.ar      1 <0>        -0.0424
      3 C3          1.2494   -0.5087    0.8079 C.ar      1 <0>        -0.0678
      4 C4          0.0057   -0.0362    0.4336 C.ar      1 <0>         0.0498
      5 C5         -0.1497    1.2885    0.0696 C.ar      1 <0>        -0.6360
      6 C6          0.9387    2.1403    0.0800 C.ar      1 <0>        -0.0195
      7 C7          2.1831    1.6673    0.4530 C.ar      1 <0>        -0.0638
      8 C8          3.3698    2.5961    0.4647 C.3       1 <0>        -0.1224
      9 S1         -1.7339    1.8891   -0.4145 S.o2      1 <0>         2.6888
     10 O1         -1.5895    3.2859   -0.6325 O.2       1 <0>        -0.9630
     11 O2         -2.2129    1.0067   -1.4201 O.2       1 <0>        -0.9472
     12 N1         -2.7423    1.7151    0.8874 N.pl3     1 <0>        -1.0664
     13 C9         -2.4698    2.4453    2.1279 C.3       1 <0>         0.1072
     14 H1         -1.3941    2.6741    2.1485 H         1 <0>         0.0790
     15 C10        -3.3050    3.7269    2.1593 C.3       1 <0>         0.0978
     16 O3         -4.6925    3.3899    2.2160 O.3       1 <0>        -0.5791
     17 C11        -2.8306    1.5816    3.3089 C.2       1 <0>         0.4739
     18 O4         -3.2702    0.4701    3.1326 O.co2     1 <0>        -0.6160
     19 O5         -2.6634    2.0471    4.5568 O.co2     1 <0>        -0.7633
     20 N2         -1.1601   -0.9483    0.4230 N.pl3     1 <0>         0.0205
     21 O6         -1.0030   -2.1397    0.6215 O.2       1 <0>        -0.1433
     22 O7         -2.2764   -0.5074    0.2159 O.3       1 <0>        -0.1264
     23 H2          3.6198   -1.2396    1.4797 H         1 <0>         0.0768
     24 H3          4.0501    0.3890    2.1036 H         1 <0>         0.0850
     25 H4          4.4024   -0.0403    0.3953 H         1 <0>         0.0831
     26 H5          1.3707   -1.5433    1.0929 H         1 <0>         0.1600
     27 H6          0.8173    3.1750   -0.2047 H         1 <0>         0.1637
     28 H7          3.0526    3.6003    0.1469 H         1 <0>         0.0779
     29 H8          4.1378    2.2184   -0.2263 H         1 <0>         0.0816
     30 H9          3.7851    2.6475    1.4820 H         1 <0>         0.0838
     31 H10        -3.5132    0.9307    0.8689 H         1 <0>         0.4610
     32 H11        -3.0349    4.3189    3.0462 H         1 <0>         0.0533
     33 H12        -3.1074    4.3157    1.2514 H         1 <0>         0.0435
     34 H13        -5.4511    4.1859    2.2452 H         1 <0>         0.3906
@<TRIPOS>BOND
     1    1    2 1
     2    1   23 1
     3    1   24 1
     4    1   25 1
     5    2    7 ar
     6    2    3 ar
     7    3    4 ar
     8    3   26 1
     9    4    5 ar
    10    4   20 1
    11    5    6 ar
    12    5    9 1
    13    6    7 ar
    14    6   27 1
    15    7    8 1
    16    8   28 1
    17    8   29 1
    18    8   30 1
    19    9   10 2
    20    9   11 2
    21    9   12 1
    22   12   13 1
    23   12   31 1
    24   13   14 1
    25   13   15 1
    26   13   17 1
    27   15   16 1
    28   15   32 1
    29   15   33 1
    30   16   34 1
    31   17   18 2
    32   17   19 1
    33   20   21 2
    34   20   22 1
@<TRIPOS>MOLECULE
ZINC38029877
   31    32     0     0     0
SMALL
USER_CHARGES

@<TRIPOS>ATOM
      1 C1         -0.0184    1.5028    0.0103 C.3       1 <0>        -0.1662
      2 C2          0.0021   -0.0041    0.0020 C.2       1 <0>         0.5129
      3 O1          1.0605   -0.5961   -0.0113 O.2       1 <0>        -0.5072
      4 N1         -1.1558   -0.6938    0.0094 N.am      1 <0>        -0.6093
      5 C3         -1.1370   -2.0826    0.0017 C.2       1 <0>         0.2622
      6 N2         -2.1484   -2.9267    0.0014 N.2       1 <0>        -0.4964
      7 C4         -1.8819   -4.2360   -0.0073 C.2       1 <0>         0.0104
      8 C5         -0.5781   -4.6454   -0.0155 C.2       1 <0>        -0.2362
      9 S1          0.2630   -3.1879   -0.0182 S.3       1 <0>         0.2523
     10 C6         -2.9752   -5.2216   -0.0075 C.2       1 <0>         0.5856
     11 O2         -2.7215   -6.4115   -0.0150 O.2       1 <0>        -0.5253
     12 N3         -4.2572   -4.8059    0.0006 N.am      1 <0>        -0.6163
     13 C7         -5.3025   -5.7483    0.0004 C.2       1 <0>        -0.0257
     14 C8         -5.1569   -7.1433   -0.0016 C.2       1 <0>         0.0245
     15 N4         -6.3494   -7.6816   -0.0004 N.2       1 <0>        -0.2415
     16 N5         -7.2987   -6.6517    0.0024 N.pl3     1 <0>        -0.3205
     17 C9         -6.6310   -5.4688    0.0079 C.2       1 <0>         0.0130
     18 C10        -8.7539   -6.8204    0.0045 C.3       1 <0>         0.0590
     19 C11        -9.1608   -7.6867   -1.1595 C.2       1 <0>         0.4869
     20 O3         -8.3138   -8.1229   -1.9203 O.co2     1 <0>        -0.6614
     21 O4        -10.3371   -7.9516   -1.3405 O.co2     1 <0>        -0.6951
     22 H1          1.0042    1.8801    0.0026 H         1 <0>         0.1045
     23 H2         -0.5455    1.8639   -0.8728 H         1 <0>         0.0990
     24 H3         -0.5286    1.8543    0.9071 H         1 <0>         0.0988
     25 H4         -2.0023   -0.2203    0.0200 H         1 <0>         0.4282
     26 H5         -0.1860   -5.6517   -0.0225 H         1 <0>         0.2104
     27 H6         -4.4595   -3.8573    0.0066 H         1 <0>         0.4123
     28 H7         -4.2204   -7.6812   -0.0041 H         1 <0>         0.1969
     29 H8         -7.0760   -4.4847    0.0152 H         1 <0>         0.1677
     30 H9         -9.0634   -7.2944    0.9359 H         1 <0>         0.0842
     31 H10        -9.2329   -5.8452   -0.0836 H         1 <0>         0.0924
@<TRIPOS>BOND
     1    1    2 1
     2    1   22 1
     3    1   23 1
     4    1   24 1
     5    2    3 2
     6    2    4 am
     7    4    5 1
     8    4   25 1
     9    5    9 1
    10    5    6 2
    11    6    7 1
    12    7    8 2
    13    7   10 1
    14    8    9 1
    15    8   26 1
    16   10   11 2
    17   10   12 am
    18   12   13 1
    19   12   27 1
    20   13   17 2
    21   13   14 1
    22   14   15 2
    23   14   28 1
    24   15   16 1
    25   16   17 1
    26   16   18 1
    27   17   29 1
    28   18   19 1
    29   18   30 1
    30   18   31 1
    31   19   20 2
    32   19   21 1
@<TRIPOS>MOLECULE
ZINC40603014
   36    36     0     0     0
SMALL
USER_CHARGES

@<TRIPOS>ATOM
      1 C1         -0.0460    1.8004    0.0100 C.3       1 <0>        -0.6541
      2 S1         -0.0476   -0.0133   -0.0190 S.o2      1 <0>         2.4323
      3 O1          0.7158   -0.4812    1.0845 O.2       1 <0>        -0.9328
      4 O2         -1.3883   -0.4593   -0.1704 O.2       1 <0>        -0.9363
      5 C2          0.8584   -0.3906   -1.5446 C.3       1 <0>        -0.6345
      6 C3          0.9486   -1.9075   -1.7223 C.3       1 <0>         0.1552
      7 N1          1.6803   -2.2122   -2.9544 N.am      1 <0>        -0.7360
      8 C4          1.8837   -3.4939   -3.3180 C.2       1 <0>         0.7200
      9 O3          1.4600   -4.3975   -2.6233 O.2       1 <0>        -0.5926
     10 N2          2.5568   -3.7742   -4.4515 N.am      1 <0>        -0.5537
     11 C5          2.9594   -2.6905   -5.3513 C.3       1 <0>         0.0338
     12 C6          4.3276   -2.1947   -4.9601 C.2       1 <0>         0.4766
     13 O4          4.9123   -2.6998   -4.0169 O.co2     1 <0>        -0.6716
     14 O5          4.8499   -1.2885   -5.5866 O.co2     1 <0>        -0.6961
     15 C7          2.8717   -5.1024   -4.7693 C.ar      1 <0>         0.1839
     16 C8          3.5904   -5.8797   -3.8711 C.ar      1 <0>        -0.0771
     17 C9          3.9000   -7.1885   -4.1847 C.ar      1 <0>        -0.1321
     18 C10         3.4930   -7.7265   -5.3967 C.ar      1 <0>         0.0813
     19 C11         2.7753   -6.9502   -6.2948 C.ar      1 <0>        -0.1340
     20 C12         2.4602   -5.6431   -5.9800 C.ar      1 <0>        -0.1226
     21 O6          3.7981   -9.0153   -5.7049 O.3       1 <0>        -0.5006
     22 H1          0.9819    2.1626    0.0305 H         1 <0>         0.1306
     23 H2         -0.5467    2.1785   -0.8813 H         1 <0>         0.1291
     24 H3         -0.5721    2.1501    0.8983 H         1 <0>         0.1307
     25 H4          0.3341    0.0444   -2.3955 H         1 <0>         0.1394
     26 H5          1.8628    0.0285   -1.4838 H         1 <0>         0.1433
     27 H6          1.4729   -2.3425   -0.8714 H         1 <0>         0.0823
     28 H7         -0.0558   -2.3266   -1.7831 H         1 <0>         0.0809
     29 H8          2.0183   -1.4914   -3.5086 H         1 <0>         0.4037
     30 H9          2.9863   -3.0604   -6.3763 H         1 <0>         0.0832
     31 H10         2.2422   -1.8728   -5.2790 H         1 <0>         0.0740
     32 H11         3.9076   -5.4608   -2.9275 H         1 <0>         0.1308
     33 H12         4.4593   -7.7932   -3.4862 H         1 <0>         0.1276
     34 H13         2.4590   -7.3696   -7.2384 H         1 <0>         0.1272
     35 H14         1.8975   -5.0401   -6.6773 H         1 <0>         0.1255
     36 H15         3.1314   -9.6558   -5.4216 H         1 <0>         0.3827
@<TRIPOS>BOND
     1    1    2 1
     2    1   22 1
     3    1   23 1
     4    1   24 1
     5    2    3 2
     6    2    4 2
     7    2    5 1
     8    5    6 1
     9    5   25 1
    10    5   26 1
    11    6    7 1
    12    6   27 1
    13    6   28 1
    14    7    8 am
    15    7   29 1
    16    8    9 2
    17    8   10 am
    18   10   11 1
    19   10   15 1
    20   11   12 1
    21   11   30 1
    22   11   31 1
    23   12   13 2
    24   12   14 1
    25   15   20 ar
    26   15   16 ar
    27   16   17 ar
    28   16   32 1
    29   17   18 ar
    30   17   33 1
    31   18   19 ar
    32   18   21 1
    33   19   20 ar
    34   19   34 1
    35   20   35 1
    36   21   36 1
@<TRIPOS>MOLECULE
ZINC48719989
   36    36     0     0     0
SMALL
USER_CHARGES

@<TRIPOS>ATOM
      1 C1         -0.0187    1.5258    0.0104 C.3       1 <0>        -0.1378
      2 C2          0.0021   -0.0041    0.0020 C.3       1 <0>         0.0211
      3 C3         -1.4333   -0.5336    0.0129 C.3       1 <0>        -0.1378
      4 C4          0.7074   -0.4901   -1.2379 C.2       1 <0>        -0.0731
      5 N1          0.4041   -0.2761   -2.4997 N.2       1 <0>        -0.2701
      6 N2          1.0927   -0.7513   -3.4468 N.2       1 <0>        -0.3230
      7 C5          2.1602   -1.4928   -3.1506 C.2       1 <0>         0.3260
      8 S1          2.0929   -1.4419   -1.3651 S.3       1 <0>        -0.0241
      9 N3          3.0455   -2.1048   -3.9683 N.2       1 <0>        -0.6023
     10 C6          2.9122   -2.0082   -5.2658 C.2       1 <0>         0.4042
     11 O1          1.8877   -1.2953   -5.7898 O.3       1 <0>        -0.6018
     12 C7          3.8812   -2.6780   -6.1609 C.2       1 <0>         0.5623
     13 O2          3.7574   -2.5882   -7.3666 O.2       1 <0>        -0.5238
     14 N4          4.9013   -3.3878   -5.6392 N.am      1 <0>        -0.7120
     15 C8          5.8608   -4.0511   -6.5255 C.3       1 <0>         0.1080
     16 C9          6.9100   -4.7821   -5.6855 C.3       1 <0>         0.1056
     17 N5          7.8696   -5.4454   -6.5719 N.am      1 <0>        -0.7268
     18 C10         8.8896   -6.1552   -6.0502 C.2       1 <0>         0.5097
     19 O3          9.0132   -6.2448   -4.8470 O.2       1 <0>        -0.5465
     20 C11         9.8767   -6.8375   -6.9619 C.3       1 <0>        -0.1699
     21 H1          1.0039    1.9031    0.0027 H         1 <0>         0.0530
     22 H2         -0.5459    1.8868   -0.8726 H         1 <0>         0.0635
     23 H3         -0.5289    1.8773    0.9072 H         1 <0>         0.0572
     24 H4          0.5293   -0.3651    0.8851 H         1 <0>         0.0811
     25 H5         -1.9605   -0.1726   -0.8702 H         1 <0>         0.0634
     26 H6         -1.4185   -1.6235    0.0069 H         1 <0>         0.0531
     27 H7         -1.9435   -0.1821    0.9097 H         1 <0>         0.0573
     28 H8          5.0001   -3.4594   -4.6769 H         1 <0>         0.4157
     29 H9          5.3365   -4.7685   -7.1568 H         1 <0>         0.0722
     30 H10         6.3515   -3.3064   -7.1522 H         1 <0>         0.0722
     31 H11         7.4343   -4.0647   -5.0543 H         1 <0>         0.0776
     32 H12         6.4193   -5.5268   -5.0589 H         1 <0>         0.0776
     33 H13         7.7707   -5.3738   -7.5341 H         1 <0>         0.4035
     34 H14         9.6051   -6.6457   -8.0000 H         1 <0>         0.0761
     35 H15        10.8769   -6.4491   -6.7703 H         1 <0>         0.0943
     36 H16         9.8619   -7.9113   -6.7749 H         1 <0>         0.0943
@<TRIPOS>BOND
     1    1    2 1
     2    1   21 1
     3    1   22 1
     4    1   23 1
     5    2    3 1
     6    2    4 1
     7    2   24 1
     8    3   25 1
     9    3   26 1
    10    3   27 1
    11    4    8 1
    12    4    5 2
    13    5    6 1
    14    6    7 2
    15    7    8 1
    16    7    9 1
    17    9   10 2
    18   10   11 1
    19   10   12 1
    20   12   13 2
    21   12   14 am
    22   14   15 1
    23   14   28 1
    24   15   16 1
    25   15   29 1
    26   15   30 1
    27   16   17 1
    28   16   31 1
    29   16   32 1
    30   17   18 am
    31   17   33 1
    32   18   19 2
    33   18   20 1
    34   20   34 1
    35   20   35 1
    36   20   36 1
@<TRIPOS>MOLECULE
ZINC61827858
   39    39     0     0     0
SMALL
USER_CHARGES

@<TRIPOS>ATOM
      1 C1         -0.0187    1.5258    0.0104 C.3       1 <0>        -0.1583
      2 C2          0.0021   -0.0041    0.0020 C.3       1 <0>        -0.0216
      3 C3          0.7421   -0.5109    1.2415 C.3       1 <0>        -0.1577
      4 C4         -1.4333   -0.5336    0.0129 C.3       1 <0>        -0.1304
      5 C5         -2.1387   -0.0476    1.2528 C.2       1 <0>         0.5129
      6 O1         -1.5514    0.6530    2.0490 O.2       1 <0>        -0.4421
      7 N1         -3.4224   -0.3919    1.4765 N.am      1 <0>        -0.6944
      8 C6         -4.0532    0.0427    2.5853 C.2       1 <0>         0.6975
      9 O2         -3.4645    0.7451    3.3835 O.2       1 <0>        -0.5257
     10 N2         -5.3369   -0.3015    2.8090 N.am      1 <0>        -0.7413
     11 C7         -6.0226    0.1709    4.0144 C.3       1 <0>         0.2283
     12 C8         -7.4365   -0.3507    4.0251 C.2       1 <0>         0.1530
     13 N3         -8.4813    0.2358    3.5076 N.2       1 <0>        -0.2687
     14 N4         -9.5249   -0.4907    3.6992 N.2       1 <0>        -0.2951
     15 C9         -9.1932   -1.5738    4.3476 C.2       1 <0>         0.1578
     16 N5         -7.8575   -1.5183    4.5685 N.pl3     1 <0>        -0.4694
     17 C10        -7.0360   -2.5164    5.2577 C.3       1 <0>         0.0670
     18 C11         0.7182   -0.4975   -1.2568 C.3       1 <0>        -0.1753
     19 C12         2.1320    0.0241   -1.2675 C.2       1 <0>         0.4942
     20 O3          2.5300    0.7255   -0.3530 O.co2     1 <0>        -0.6803
     21 O4          2.8779   -0.2552   -2.1906 O.co2     1 <0>        -0.7092
     22 H1          1.0039    1.9031    0.0027 H         1 <0>         0.0969
     23 H2         -0.5459    1.8868   -0.8726 H         1 <0>         0.0250
     24 H3         -0.5289    1.8773    0.9072 H         1 <0>         0.0595
     25 H4          0.2319   -0.1594    2.1383 H         1 <0>         0.0592
     26 H5          0.7568   -1.6008    1.2356 H         1 <0>         0.0242
     27 H6          1.7647   -0.1336    1.2338 H         1 <0>         0.0969
     28 H7         -1.9605   -0.1726   -0.8702 H         1 <0>         0.0924
     29 H8         -1.4185   -1.6235    0.0069 H         1 <0>         0.0916
     30 H9         -3.8923   -0.9525    0.8394 H         1 <0>         0.4069
     31 H10        -5.8068   -0.8621    2.1720 H         1 <0>         0.3995
     32 H11        -5.4955   -0.1902    4.8974 H         1 <0>         0.0898
     33 H12        -6.0374    1.2608    4.0203 H         1 <0>         0.1075
     34 H13        -9.8592   -2.3689    4.6488 H         1 <0>         0.2221
     35 H14        -7.0022   -2.2866    6.3227 H         1 <0>         0.0877
     36 H15        -7.4693   -3.5061    5.1132 H         1 <0>         0.0966
     37 H16        -6.0252   -2.4993    4.8501 H         1 <0>         0.0946
     38 H17         0.7330   -1.5874   -1.2628 H         1 <0>         0.0540
     39 H18         0.1910   -0.1364   -2.1398 H         1 <0>         0.0545
@<TRIPOS>BOND
     1    1    2 1
     2    1   22 1
     3    1   23 1
     4    1   24 1
     5    2    3 1
     6    2    4 1
     7    2   18 1
     8    3   25 1
     9    3   26 1
    10    3   27 1
    11    4    5 1
    12    4   28 1
    13    4   29 1
    14    5    6 2
    15    5    7 am
    16    7    8 am
    17    7   30 1
    18    8    9 2
    19    8   10 am
    20   10   11 1
    21   10   31 1
    22   11   12 1
    23   11   32 1
    24   11   33 1
    25   12   16 1
    26   12   13 2
    27   13   14 1
    28   14   15 2
    29   15   16 1
    30   15   34 1
    31   16   17 1
    32   17   35 1
    33   17   36 1
    34   17   37 1
    35   18   19 1
    36   18   38 1
    37   18   39 1
    38   19   20 2
    39   19   21 1
@<TRIPOS>MOLECULE
ZINC02130155
   62    66     0     0     0
SMALL
USER_CHARGES
(2S)-3-(5-hydroxy-1H-indol-3-yl)-2-[[2-(2,3,4,9-tetramethyl-7-oxo-pyrano[6,5-g]benzofuran-8-yl)acetyl]amino]propanoic acid
@<TRIPOS>ATOM
      1 C1         -3.0640    0.7232    0.5849 C.3       1 <0>        -0.1211
      2 C2         -2.5525    2.1377    0.4917 C.ar      1 <0>         0.0136
      3 C3         -3.4372    3.1761    0.4429 C.ar      1 <0>        -0.1513
      4 C4         -2.9820    4.4896    0.3572 C.ar      1 <0>         0.1825
      5 C5         -1.6024    4.7523    0.3269 C.ar      1 <0>        -0.1328
      6 C6         -1.1433    6.1378    0.2294 C.2       1 <0>         0.0295
      7 C7         -2.0784    7.1232    0.1850 C.2       1 <0>        -0.1844
      8 C8         -3.4473    6.7894    0.2268 C.2       1 <0>         0.5155
      9 O1         -4.2769    7.6804    0.1863 O.2       1 <0>        -0.4419
     10 O2         -3.8597    5.5155    0.3094 O.3       1 <0>        -0.2632
     11 C9         -1.6536    8.5661    0.0920 C.3       1 <0>        -0.0871
     12 C10        -1.4894    9.1317    1.4791 C.2       1 <0>         0.5251
     13 O3         -1.6968    8.4321    2.4478 O.2       1 <0>        -0.5437
     14 N1         -1.1120   10.4151    1.6432 N.am      1 <0>        -0.6937
     15 C11        -0.9523   10.9651    2.9916 C.3       1 <0>         0.1118
     16 H1         -0.5665   10.1919    3.6560 H         1 <0>         0.0864
     17 C12         0.0286   12.1386    2.9510 C.3       1 <0>        -0.0404
     18 C13         1.3951   11.6377    2.5604 C.2       1 <0>        -0.1499
     19 C14         2.3916   11.3034    3.3954 C.2       1 <0>         0.0514
     20 N2          3.4812   10.8889    2.6795 N.pl3     1 <0>        -0.5967
     21 H2          4.3217   10.5946    3.0639 H         1 <0>         0.4135
     22 C15         3.2082   10.9575    1.3295 C.ar      1 <0>         0.0891
     23 C16         1.8898   11.4295    1.1973 C.ar      1 <0>        -0.0787
     24 C17         1.3342   11.6020   -0.0721 C.ar      1 <0>        -0.0948
     25 C18         2.0864   11.3069   -1.1918 C.ar      1 <0>         0.0708
     26 C19         3.3911   10.8399   -1.0576 C.ar      1 <0>        -0.1257
     27 C20         3.9490   10.6655    0.1895 C.ar      1 <0>        -0.1162
     28 O4          1.5505   11.4725   -2.4306 O.3       1 <0>        -0.4973
     29 C21        -2.2877   11.4439    3.5002 C.2       1 <0>         0.4564
     30 O5         -3.2717   11.3368    2.8074 O.co2     1 <0>        -0.6221
     31 C22         0.3273    6.4644    0.1869 C.3       1 <0>        -0.1236
     32 C23        -0.6867    3.6873    0.3731 C.ar      1 <0>         0.1149
     33 C24        -1.1757    2.3767    0.4563 C.ar      1 <0>        -0.1499
     34 C25         0.0137    1.5165    0.4901 C.2       1 <0>        -0.1627
     35 C26         1.0701    2.3377    0.4191 C.2       1 <0>         0.0169
     36 O6          0.6568    3.6151    0.3503 O.3       1 <0>        -0.1763
     37 C27         2.5104    1.8944    0.4167 C.3       1 <0>        -0.0776
     38 C28         0.0407    0.0124    0.5800 C.3       1 <0>        -0.0851
     39 H3         -3.0707    0.4073    1.6280 H         1 <0>         0.0810
     40 H4         -4.0766    0.6759    0.1843 H         1 <0>         0.0748
     41 H5         -2.4145    0.0634    0.0096 H         1 <0>         0.0781
     42 H6         -4.4984    2.9776    0.4714 H         1 <0>         0.1502
     43 H7         -0.7056    8.6321   -0.4419 H         1 <0>         0.1059
     44 H8         -2.4131    9.1346   -0.4446 H         1 <0>         0.1115
     45 H9         -0.9460   10.9747    0.8684 H         1 <0>         0.3884
     46 H10        -0.3123   12.8719    2.2202 H         1 <0>         0.0692
     47 H11         0.0798   12.6036    3.9355 H         1 <0>         0.0961
     48 H12         2.3399   11.3521    4.4731 H         1 <0>         0.1727
     49 H13         0.3224   11.9646   -0.1775 H         1 <0>         0.1264
     50 H14         3.9711   10.6119   -1.9397 H         1 <0>         0.1271
     51 H15         4.9618   10.3020    0.2820 H         1 <0>         0.1201
     52 H16         1.6945   12.3515   -2.8071 H         1 <0>         0.3834
     53 H17         0.6978    6.6045    1.2024 H         1 <0>         0.0893
     54 H18         0.8678    5.6452   -0.2873 H         1 <0>         0.0804
     55 H19         0.4799    7.3796   -0.3851 H         1 <0>         0.0842
     56 H20         2.8369    1.7255   -0.6095 H         1 <0>         0.0849
     57 H21         3.1293    2.6674    0.8723 H         1 <0>         0.0806
     58 H22         2.6069    0.9696    0.9855 H         1 <0>         0.0914
     59 H23        -0.0377   -0.2907    1.6241 H         1 <0>         0.0710
     60 H24        -0.7971   -0.4003    0.0180 H         1 <0>         0.0733
     61 H25         0.9765   -0.3597    0.1629 H         1 <0>         0.0685
     62 O7         -2.3838   11.9893    4.7229 O.co2     1 <0>        -0.7697
@<TRIPOS>BOND
     1    1    2 1
     2    1   39 1
     3    1   40 1
     4    1   41 1
     5    2   33 ar
     6    2    3 ar
     7    3    4 ar
     8    3   42 1
     9    4   10 1
    10    4    5 ar
    11    5    6 1
    12    5   32 ar
    13    6    7 2
    14    6   31 1
    15    7    8 1
    16    7   11 1
    17    8    9 2
    18    8   10 1
    19   11   12 1
    20   11   43 1
    21   11   44 1
    22   12   13 2
    23   12   14 am
    24   14   15 1
    25   14   45 1
    26   15   16 1
    27   15   17 1
    28   15   29 1
    29   17   18 1
    30   17   46 1
    31   17   47 1
    32   18   23 1
    33   18   19 2
    34   19   20 1
    35   19   48 1
    36   20   21 1
    37   20   22 1
    38   22   27 ar
    39   22   23 ar
    40   23   24 ar
    41   24   25 ar
    42   24   49 1
    43   25   26 ar
    44   25   28 1
    45   26   27 ar
    46   26   50 1
    47   27   51 1
    48   28   52 1
    49   29   30 2
    50   29   62 1
    51   31   53 1
    52   31   54 1
    53   31   55 1
    54   32   36 1
    55   32   33 ar
    56   33   34 1
    57   34   35 2
    58   34   38 1
    59   35   36 1
    60   35   37 1
    61   37   56 1
    62   37   57 1
    63   37   58 1
    64   38   59 1
    65   38   60 1
    66   38   61 1
@<TRIPOS>MOLECULE
ZINC28157376
   60    63     0     0     0
SMALL
USER_CHARGES
3-[[2-[(5S)-2-[(5R)-5-(4-ethoxyphenyl)-3-(4-fluorophenyl)-4,5-dihydropyrazol-1-yl]-4-oxo-thiazol-5-yl]acetyl]amino]propanoic acid
@<TRIPOS>ATOM
      1 C1         -3.3693    3.1533    7.0418 C.3       1 <0>        -0.1544
      2 C2         -2.3732    3.3308    5.8942 C.3       1 <0>         0.0514
      3 O1         -3.0843    3.5886    4.6818 O.3       1 <0>        -0.3145
      4 C3         -2.3421    3.7717    3.5582 C.ar      1 <0>         0.1423
      5 C4         -2.9675    4.0260    2.3462 C.ar      1 <0>        -0.1486
      6 C5         -2.2108    4.2113    1.2053 C.ar      1 <0>        -0.0494
      7 C6         -0.8314    4.1430    1.2706 C.ar      1 <0>        -0.1412
      8 C7         -0.2060    3.8841    2.4763 C.ar      1 <0>        -0.0579
      9 C8         -0.9579    3.7041    3.6211 C.ar      1 <0>        -0.2051
     10 C9         -0.0084    4.3451    0.0245 C.3       1 <0>         0.1570
     11 H1         -0.6827    4.1547   -0.8235 H         1 <0>         0.1190
     12 C10         0.6438    5.7418    0.0256 C.3       1 <0>        -0.1273
     13 C11         2.1275    5.4511    0.0102 C.2       1 <0>         0.1658
     14 N1          2.3163    4.1766    0.0074 N.2       1 <0>        -0.2277
     15 N2          1.1417    3.4271    0.0089 N.pl3     1 <0>        -0.3895
     16 C12         1.0696    2.0641    0.0029 C.2       1 <0>         0.5377
     17 N3         -0.0156    1.3006    0.0092 N.2       1 <0>        -0.6695
     18 C13         0.0021   -0.0041    0.0020 C.2       1 <0>         0.5413
     19 O2         -1.0162   -0.6681    0.0078 O.2       1 <0>        -0.4607
     20 C14         1.3878   -0.6374   -0.0146 C.3       1 <0>        -0.1335
     21 H2          1.4554   -1.4281   -0.7764 H         1 <0>         0.1649
     22 S1          2.4150    0.8871   -0.0162 S.3       1 <0>        -0.0567
     23 C15         1.6336   -1.4765    1.2409 C.3       1 <0>        -0.1224
     24 C16         2.9616   -2.1791    1.1236 C.2       1 <0>         0.5075
     25 O3          3.6443   -2.0239    0.1333 O.2       1 <0>        -0.5394
     26 N4          3.3907   -2.9798    2.1192 N.am      1 <0>        -0.7326
     27 C17         4.6817   -3.6628    2.0051 C.3       1 <0>         0.1386
     28 C18         4.9275   -4.5019    3.2607 C.3       1 <0>        -0.1691
     29 C19         6.2555   -5.2044    3.1433 C.2       1 <0>         0.4639
     30 O4          6.9357   -5.0498    2.1567 O.co2     1 <0>        -0.6354
     31 O5          6.6828   -6.0019    4.1349 O.co2     1 <0>        -0.7711
     32 C20         3.1941    6.4692    0.0054 C.ar      1 <0>        -0.0522
     33 C21         2.8670    7.8275    0.0097 C.ar      1 <0>        -0.0532
     34 C22         3.8688    8.7749    0.0101 C.ar      1 <0>        -0.1571
     35 C23         5.1980    8.3821   -0.0044 C.ar      1 <0>         0.1229
     36 C24         5.5285    7.0361   -0.0140 C.ar      1 <0>        -0.1550
     37 C25         4.5356    6.0794   -0.0092 C.ar      1 <0>        -0.0439
     38 F1          6.1752    9.3150   -0.0087 F         1 <0>        -0.1335
     39 H3         -2.8219    2.9549    7.9751 H         1 <0>         0.0805
     40 H4         -4.0362    2.3069    6.8208 H         1 <0>         0.0681
     41 H5         -3.9659    4.0705    7.1546 H         1 <0>         0.0666
     42 H6         -1.7063    4.1772    6.1152 H         1 <0>         0.0629
     43 H7         -1.7765    2.4136    5.7814 H         1 <0>         0.0644
     44 H8         -4.0449    4.0788    2.2945 H         1 <0>         0.1338
     45 H9         -2.6971    4.4093    0.2616 H         1 <0>         0.1323
     46 H10         0.8715    3.8265    2.5238 H         1 <0>         0.1160
     47 H11        -0.4687    3.5059    4.5634 H         1 <0>         0.1286
     48 H12         0.3207    6.2980   -0.8667 H         1 <0>         0.1205
     49 H13         0.3375    6.2888    0.9295 H         1 <0>         0.1205
     50 H14         1.6424   -0.8209    2.1241 H         1 <0>         0.0994
     51 H15         0.8321   -2.2225    1.3460 H         1 <0>         0.1201
     52 H16         2.7715   -3.1205    3.0175 H         1 <0>         0.4169
     53 H17         4.6728   -4.3184    1.1219 H         1 <0>         0.0691
     54 H18         5.4832   -2.9168    1.8999 H         1 <0>         0.0690
     55 H19         4.9363   -3.8463    4.1439 H         1 <0>         0.0705
     56 H20         4.1260   -5.2480    3.3659 H         1 <0>         0.0710
     57 H21         1.8317    8.1347    0.0169 H         1 <0>         0.1422
     58 H22         3.6173    9.8252    0.0179 H         1 <0>         0.1440
     59 H23         6.5660    6.7360   -0.0257 H         1 <0>         0.1451
     60 H24         4.7944    5.0309   -0.0163 H         1 <0>         0.1474
@<TRIPOS>BOND
     1    1    2 1
     2    1   39 1
     3    1   40 1
     4    1   41 1
     5    2    3 1
     6    2   42 1
     7    2   43 1
     8    3    4 1
     9    4    9 ar
    10    4    5 ar
    11    5    6 ar
    12    5   44 1
    13    6    7 ar
    14    6   45 1
    15    7    8 ar
    16    7   10 1
    17    8    9 ar
    18    8   46 1
    19    9   47 1
    20   10   11 1
    21   10   15 1
    22   10   12 1
    23   12   13 1
    24   12   48 1
    25   12   49 1
    26   13   14 2
    27   13   32 1
    28   14   15 1
    29   15   16 1
    30   16   22 1
    31   16   17 2
    32   17   18 1
    33   18   19 2
    34   18   20 1
    35   20   21 1
    36   20   22 1
    37   20   23 1
    38   23   24 1
    39   23   50 1
    40   23   51 1
    41   24   25 2
    42   24   26 am
    43   26   27 1
    44   26   52 1
    45   27   28 1
    46   27   53 1
    47   27   54 1
    48   28   29 1
    49   28   55 1
    50   28   56 1
    51   29   30 2
    52   29   31 1
    53   32   37 ar
    54   32   33 ar
    55   33   34 ar
    56   33   57 1
    57   34   35 ar
    58   34   58 1
    59   35   36 ar
    60   35   38 1
    61   36   37 ar
    62   36   59 1
    63   37   60 1
@<TRIPOS>MOLECULE
ZINC35696318
   59    62     0     0     0
SMALL
USER_CHARGES

@<TRIPOS>ATOM
      1 C1          0.3745    1.2291    0.7633 C.3       1 <0>        -0.0920
      2 C2          0.2681   -0.2350    0.4226 C.2       1 <0>         0.3018
      3 C3         -0.9691   -0.8501    0.4171 C.2       1 <0>        -0.3913
      4 C4         -1.0240   -2.3208    0.0684 C.3       1 <0>         0.2609
      5 H1         -1.6789   -2.4366   -0.7952 H         1 <0>         0.0737
      6 N1          0.2667   -2.9910   -0.2427 N.pl3     1 <0>        -0.5138
      7 C5          0.4540   -4.3155   -0.5846 C.2       1 <0>         0.2328
      8 C6          1.7175   -4.7268   -0.8303 C.2       1 <0>        -0.3032
      9 S1          2.6487   -3.2293   -0.5761 S.3       1 <0>         0.1458
     10 C7          1.3814   -2.2023   -0.1811 C.2       1 <0>         0.3200
     11 N2          1.3594   -0.9215    0.1255 N.2       1 <0>        -0.5953
     12 C8         -0.6807   -5.2453   -0.6775 C.2       1 <0>        -0.4653
     13 C9         -0.4605   -6.5581   -0.8829 C.2       1 <0>         0.5030
     14 O1          0.8057   -7.0415   -0.8796 O.3       1 <0>        -0.7015
     15 N3         -1.5277   -7.4139   -1.0974 N.pl3     1 <0>        -0.7513
     16 C10        -1.2841   -8.8192   -1.4318 C.3       1 <0>         0.1835
     17 C11        -2.5951   -9.4985   -1.7330 C.ar      1 <0>        -0.1431
     18 C12        -3.3214  -10.1041   -0.7188 C.ar      1 <0>        -0.0613
     19 C13        -4.5220  -10.7170   -1.0424 C.ar      1 <0>        -0.1760
     20 C14        -4.9522  -10.7042   -2.3560 C.ar      1 <0>         0.0922
     21 N4         -4.2349  -10.1189   -3.2948 N.ar      1 <0>        -0.4881
     22 C15        -3.0914   -9.5209   -3.0224 C.ar      1 <0>         0.1133
     23 C16        -1.6568   -3.0488    1.2262 C.ar      1 <0>        -0.0649
     24 C17        -0.9444   -3.2384    2.3957 C.ar      1 <0>        -0.0823
     25 C18        -1.5242   -3.9060    3.4579 C.ar      1 <0>        -0.1136
     26 C19        -2.8178   -4.3847    3.3506 C.ar      1 <0>        -0.0310
     27 C20        -3.5303   -4.1947    2.1799 C.ar      1 <0>        -0.0965
     28 C21        -2.9514   -3.5220    1.1204 C.ar      1 <0>        -0.0533
     29 Cl1        -3.5466   -5.2239    4.6841 Cl        1 <0>        -0.0899
     30 C22        -2.1334   -0.1358    0.7247 C.2       1 <0>         0.5366
     31 O2         -2.0659    1.0488    1.0033 O.2       1 <0>        -0.5506
     32 O3         -3.3321   -0.7598    0.7126 O.3       1 <0>        -0.3463
     33 C23        -4.4780    0.0302    1.0363 C.3       1 <0>         0.0731
     34 C24        -5.7336   -0.8418    0.9708 C.3       1 <0>         0.0635
     35 O4         -5.6688   -1.8470    1.9844 O.3       1 <0>        -0.3722
     36 C25        -6.7996   -2.7203    2.0100 C.3       1 <0>         0.0305
     37 H2          1.4183    1.5390    0.7125 H         1 <0>         0.0640
     38 H3         -0.2124    1.8111    0.0527 H         1 <0>         0.0865
     39 H4         -0.0054    1.3961    1.7712 H         1 <0>         0.0863
     40 H5          2.0712   -5.7088   -1.1082 H         1 <0>         0.2335
     41 H6         -1.6909   -4.8758   -0.5811 H         1 <0>         0.0877
     42 H7         -2.4367   -7.0828   -1.0263 H         1 <0>         0.3849
     43 H8         -0.6354   -8.8776   -2.3058 H         1 <0>         0.0667
     44 H9         -0.8032   -9.3152   -0.5886 H         1 <0>         0.0595
     45 H10        -2.9602  -10.0987    0.2990 H         1 <0>         0.1347
     46 H11        -5.1136  -11.1987   -0.2779 H         1 <0>         0.1328
     47 H12        -5.8864  -11.1794   -2.6163 H         1 <0>         0.1524
     48 H13        -2.5341   -9.0474   -3.8172 H         1 <0>         0.1563
     49 H14         0.0656   -2.8650    2.4792 H         1 <0>         0.1120
     50 H15        -0.9675   -4.0544    4.3713 H         1 <0>         0.1237
     51 H16        -4.5400   -4.5685    2.0955 H         1 <0>         0.1220
     52 H17        -3.5091   -3.3694    0.2082 H         1 <0>         0.1220
     53 H18        -4.3683    0.4342    2.0427 H         1 <0>         0.0686
     54 H19        -4.5674    0.8499    0.3234 H         1 <0>         0.0746
     55 H20        -6.6155   -0.2214    1.1302 H         1 <0>         0.0642
     56 H21        -5.7955   -1.3166   -0.0084 H         1 <0>         0.0575
     57 H22        -6.8837   -3.2341    1.0524 H         1 <0>         0.0403
     58 H23        -6.6741   -3.4540    2.8062 H         1 <0>         0.0850
     59 H24        -7.7037   -2.1389    2.1910 H         1 <0>         0.0369
@<TRIPOS>BOND
     1    1    2 1
     2    1   37 1
     3    1   38 1
     4    1   39 1
     5    2   11 1
     6    2    3 2
     7    3    4 1
     8    3   30 1
     9    4    5 1
    10    4    6 1
    11    4   23 1
    12    6   10 1
    13    6    7 1
    14    7    8 2
    15    7   12 1
    16    8    9 1
    17    8   40 1
    18    9   10 1
    19   10   11 2
    20   12   13 2
    21   12   41 1
    22   13   14 1
    23   13   15 1
    24   15   16 1
    25   15   42 1
    26   16   17 1
    27   16   43 1
    28   16   44 1
    29   17   22 ar
    30   17   18 ar
    31   18   19 ar
    32   18   45 1
    33   19   20 ar
    34   19   46 1
    35   20   21 ar
    36   20   47 1
    37   21   22 ar
    38   22   48 1
    39   23   28 ar
    40   23   24 ar
    41   24   25 ar
    42   24   49 1
    43   25   26 ar
    44   25   50 1
    45   26   27 ar
    46   26   29 1
    47   27   28 ar
    48   27   51 1
    49   28   52 1
    50   30   31 2
    51   30   32 1
    52   32   33 1
    53   33   34 1
    54   33   53 1
    55   33   54 1
    56   34   35 1
    57   34   55 1
    58   34   56 1
    59   35   36 1
    60   36   57 1
    61   36   58 1
    62   36   59 1
@<TRIPOS>MOLECULE
ZINC40055295
   59    62     0     0     0
SMALL
USER_CHARGES

@<TRIPOS>ATOM
      1 C1          0.6377   -6.1734    1.7084 C.ar      1 <0>        -0.0649
      2 C2          1.7763   -6.8615    2.0824 C.ar      1 <0>        -0.1572
      3 C3          1.6702   -8.1289    2.6296 C.ar      1 <0>         0.1063
      4 C4          0.4232   -8.7055    2.8015 C.ar      1 <0>        -0.1569
      5 C5         -0.7141   -8.0154    2.4268 C.ar      1 <0>        -0.0648
      6 C6         -0.6069   -6.7500    1.8806 C.ar      1 <0>        -0.1042
      7 C7         -1.8478   -5.9985    1.4724 C.3       1 <0>         0.1002
      8 O1         -2.1609   -6.2997    0.1110 O.3       1 <0>        -0.3084
      9 C8         -3.2582   -5.7000   -0.4159 C.ar      1 <0>         0.1414
     10 C9         -4.0157   -4.8326    0.3633 C.ar      1 <0>        -0.2236
     11 C10        -5.1296   -4.2221   -0.1674 C.ar      1 <0>        -0.0327
     12 C11        -5.4985   -4.4750   -1.4921 C.ar      1 <0>        -0.1741
     13 C12        -4.7337   -5.3475   -2.2724 C.ar      1 <0>        -0.0275
     14 C13        -3.6185   -5.9501   -1.7354 C.ar      1 <0>        -0.1657
     15 C14        -6.6924   -3.8230   -2.0652 C.2       1 <0>         0.5028
     16 O2         -7.3949   -3.1169   -1.3659 O.2       1 <0>        -0.4752
     17 C15        -7.0320   -4.0261   -3.4772 C.2       1 <0>        -0.5085
     18 C16        -8.1507   -4.6134   -3.9618 C.2       1 <0>         0.2706
     19 C17        -8.0975   -4.6149   -5.4388 C.2       1 <0>         0.5116
     20 O3         -8.9558   -5.0725   -6.1670 O.2       1 <0>        -0.5256
     21 N1         -6.9583   -4.0346   -5.8579 N.am      1 <0>        -0.6135
     22 C18        -6.2035   -3.6140   -4.6716 C.3       1 <0>         0.2568
     23 H1         -5.2364   -4.1162   -4.6481 H         1 <0>         0.0808
     24 C19        -6.0119   -2.1192   -4.6784 C.ar      1 <0>        -0.0200
     25 C20        -7.0866   -1.2858   -4.9262 C.ar      1 <0>        -0.0838
     26 C21        -6.9109    0.0853   -4.9325 C.ar      1 <0>        -0.0541
     27 C22        -5.6606    0.6231   -4.6905 C.ar      1 <0>        -0.0583
     28 C23        -4.5861   -0.2104   -4.4417 C.ar      1 <0>        -0.0560
     29 C24        -4.7627   -1.5813   -4.4312 C.ar      1 <0>        -0.1168
     30 N2         -5.4722    2.0912   -4.6981 N.pl3     1 <0>         0.0407
     31 O4         -6.4118    2.8201   -4.9161 O.2       1 <0>        -0.1674
     32 O5         -4.3787    2.5615   -4.4865 O.3       1 <0>        -0.1715
     33 C25        -6.5472   -3.8494   -7.2517 C.3       1 <0>         0.1398
     34 C26        -7.0655   -2.5033   -7.7618 C.3       1 <0>        -0.1477
     35 C27        -6.6361   -2.3099   -9.2176 C.3       1 <0>         0.0808
     36 O6         -7.1202   -1.0527   -9.6940 O.3       1 <0>        -0.5725
     37 O7         -9.1579   -5.1191   -3.2131 O.3       1 <0>        -0.6416
     38 F1          2.7827   -8.8028    2.9951 F         1 <0>        -0.1388
     39 H2          0.7199   -5.1829    1.2857 H         1 <0>         0.1364
     40 H3          2.7486   -6.4110    1.9475 H         1 <0>         0.1384
     41 H4          0.3392   -9.6942    3.2278 H         1 <0>         0.1385
     42 H5         -1.6869   -8.4650    2.5604 H         1 <0>         0.1367
     43 H6         -2.6795   -6.2964    2.1110 H         1 <0>         0.0750
     44 H7         -1.6749   -4.9274    1.5771 H         1 <0>         0.0749
     45 H8         -3.7300   -4.6379    1.3865 H         1 <0>         0.1274
     46 H9         -5.7178   -3.5491    0.4388 H         1 <0>         0.1322
     47 H10        -5.0153   -5.5455   -3.2961 H         1 <0>         0.1411
     48 H11        -3.0249   -6.6210   -2.3386 H         1 <0>         0.1315
     49 H12        -8.0634   -1.7059   -5.1153 H         1 <0>         0.1417
     50 H13        -7.7503    0.7365   -5.1268 H         1 <0>         0.1491
     51 H14        -3.6092    0.2097   -4.2530 H         1 <0>         0.1488
     52 H15        -3.9241   -2.2324   -4.2332 H         1 <0>         0.1453
     53 H16        -5.4592   -3.8674   -7.3151 H         1 <0>         0.0778
     54 H17        -6.9600   -4.6526   -7.8621 H         1 <0>         0.0839
     55 H18        -8.1535   -2.4853   -7.6985 H         1 <0>         0.0758
     56 H19        -6.6527   -1.7001   -7.1515 H         1 <0>         0.0752
     57 H20        -5.5481   -2.3280   -9.2809 H         1 <0>         0.0446
     58 H21        -7.0489   -3.1131   -9.8279 H         1 <0>         0.0474
     59 H22        -6.8846   -0.8630  -10.6125 H         1 <0>         0.3774
@<TRIPOS>BOND
     1    1    6 ar
     2    1    2 ar
     3    1   39 1
     4    2    3 ar
     5    2   40 1
     6    3    4 ar
     7    3   38 1
     8    4    5 ar
     9    4   41 1
    10    5    6 ar
    11    5   42 1
    12    6    7 1
    13    7    8 1
    14    7   43 1
    15    7   44 1
    16    8    9 1
    17    9   14 ar
    18    9   10 ar
    19   10   11 ar
    20   10   45 1
    21   11   12 ar
    22   11   46 1
    23   12   13 ar
    24   12   15 1
    25   13   14 ar
    26   13   47 1
    27   14   48 1
    28   15   16 2
    29   15   17 1
    30   17   22 1
    31   17   18 2
    32   18   19 1
    33   18   37 1
    34   19   20 2
    35   19   21 am
    36   21   22 1
    37   21   33 1
    38   22   23 1
    39   22   24 1
    40   24   29 ar
    41   24   25 ar
    42   25   26 ar
    43   25   49 1
    44   26   27 ar
    45   26   50 1
    46   27   28 ar
    47   27   30 1
    48   28   29 ar
    49   28   51 1
    50   29   52 1
    51   30   31 2
    52   30   32 1
    53   33   34 1
    54   33   53 1
    55   33   54 1
    56   34   35 1
    57   34   55 1
    58   34   56 1
    59   35   36 1
    60   35   57 1
    61   35   58 1
    62   36   59 1
@<TRIPOS>MOLECULE
ZINC40475535
   50    54     0     0     0
SMALL
USER_CHARGES

@<TRIPOS>ATOM
      1 C1         -1.6434    1.1548   -1.2381 C.3       1 <0>        -0.1511
      2 C2         -1.2115   -0.2803   -0.9297 C.3       1 <0>         0.0526
      3 O1         -0.1351   -0.6499   -1.7939 O.3       1 <0>        -0.3082
      4 C3          0.3700   -1.9042   -1.6492 C.ar      1 <0>         0.0986
      5 C4         -0.1627   -2.7621   -0.7004 C.ar      1 <0>        -0.1871
      6 C5          0.3516   -4.0370   -0.5549 C.ar      1 <0>        -0.0535
      7 C6          1.3977   -4.4590   -1.3542 C.ar      1 <0>        -0.0739
      8 C7          1.9341   -3.6080   -2.3024 C.ar      1 <0>        -0.1031
      9 C8          1.4192   -2.3310   -2.4576 C.ar      1 <0>         0.0793
     10 O2          1.9417   -1.4946   -3.3940 O.3       1 <0>        -0.4885
     11 C9         -0.2290   -4.9686    0.4775 C.3       1 <0>         0.0789
     12 H1         -0.6036   -4.3674    1.3060 H         1 <0>         0.1053
     13 C10         0.8608   -5.8355    0.9873 C.2       1 <0>        -0.2916
     14 C11         0.8621   -7.1838    1.1717 C.2       1 <0>         0.1132
     15 N1          1.9894   -7.6758    1.6927 N.2       1 <0>        -0.5583
     16 C12         3.0210   -6.9089    1.9689 C.2       1 <0>         0.2820
     17 S1          4.5797   -7.3732    2.6468 S.3       1 <0>        -0.7140
     18 S2          2.4913   -5.3754    1.5177 S.3       1 <0>         0.0715
     19 S3         -0.5393   -8.1701    0.7166 S.3       1 <0>        -0.0163
     20 C13        -1.8874   -6.9573    0.5473 C.3       1 <0>        -0.1093
     21 H2         -2.4291   -6.7841    1.4772 H         1 <0>         0.1657
     22 C14        -1.3746   -5.6837   -0.1332 C.3       1 <0>        -0.1100
     23 H3         -2.2131   -4.9899   -0.0724 H         1 <0>         0.1258
     24 C15        -1.3159   -6.0579   -1.5810 C.2       1 <0>         0.5474
     25 O3         -0.5863   -5.5885   -2.4277 O.2       1 <0>        -0.4121
     26 N2         -2.2442   -7.0289   -1.7513 N.am      1 <0>        -0.5276
     27 C16        -2.7711   -7.4878   -0.5959 C.2       1 <0>         0.5539
     28 O4         -3.7505   -8.1927   -0.4801 O.2       1 <0>        -0.4349
     29 C17        -2.6296   -7.5065   -3.0118 C.ar      1 <0>         0.1853
     30 C18        -2.0488   -6.9859   -4.1602 C.ar      1 <0>        -0.1414
     31 C19        -2.4302   -7.4588   -5.4007 C.ar      1 <0>        -0.0288
     32 C20        -3.3895   -8.4497   -5.4993 C.ar      1 <0>        -0.0660
     33 C21        -3.9701   -8.9699   -4.3573 C.ar      1 <0>        -0.0299
     34 C22        -3.5887   -8.5051   -3.1138 C.ar      1 <0>        -0.1445
     35 N3         -3.7961   -8.9543   -6.8302 N.pl3     1 <0>         0.0376
     36 O5         -3.2895   -8.5001   -7.8295 O.2       1 <0>        -0.1600
     37 O6         -4.6347   -9.8207   -6.9178 O.3       1 <0>        -0.1613
     38 H4         -0.8021    1.8294   -1.0794 H         1 <0>         0.0659
     39 H5         -1.9713    1.2206   -2.2755 H         1 <0>         0.0654
     40 H6         -2.4644    1.4367   -0.5789 H         1 <0>         0.0765
     41 H7         -0.8836   -0.3461    0.1077 H         1 <0>         0.0614
     42 H8         -2.0529   -0.9549   -1.0884 H         1 <0>         0.0582
     43 H9         -0.9795   -2.4346   -0.0742 H         1 <0>         0.1279
     44 H10         1.7970   -5.4557   -1.2372 H         1 <0>         0.1259
     45 H11         2.7516   -3.9400   -2.9252 H         1 <0>         0.1337
     46 H12         2.6731   -0.9506   -3.0712 H         1 <0>         0.3837
     47 H13        -1.2997   -6.2117   -4.0838 H         1 <0>         0.1781
     48 H14        -1.9789   -7.0539   -6.2944 H         1 <0>         0.1613
     49 H15        -4.7194   -9.7436   -4.4374 H         1 <0>         0.1609
     50 H16        -4.0391   -8.9151   -2.2219 H         1 <0>         0.1754
@<TRIPOS>BOND
     1    1    2 1
     2    1   38 1
     3    1   39 1
     4    1   40 1
     5    2    3 1
     6    2   41 1
     7    2   42 1
     8    3    4 1
     9    4    9 ar
    10    4    5 ar
    11    5    6 ar
    12    5   43 1
    13    6    7 ar
    14    6   11 1
    15    7    8 ar
    16    7   44 1
    17    8    9 ar
    18    8   45 1
    19    9   10 1
    20   10   46 1
    21   11   12 1
    22   11   22 1
    23   11   13 1
    24   13   18 1
    25   13   14 2
    26   14   15 1
    27   14   19 1
    28   15   16 2
    29   16   17 1
    30   16   18 1
    31   19   20 1
    32   20   21 1
    33   20   27 1
    34   20   22 1
    35   22   23 1
    36   22   24 1
    37   24   25 2
    38   24   26 am
    39   26   27 am
    40   26   29 1
    41   27   28 2
    42   29   34 ar
    43   29   30 ar
    44   30   31 ar
    45   30   47 1
    46   31   32 ar
    47   31   48 1
    48   32   33 ar
    49   32   35 1
    50   33   34 ar
    51   33   49 1
    52   34   50 1
    53   35   36 2
    54   35   37 1
@<TRIPOS>MOLECULE
ZINC09493112
   51    53     0     0     0
SMALL
USER_CHARGES
4-hydroxy-N-[4-methoxy-3-(1-piperidylsulfonyl)phenyl]-3-nitro-benzenesulfonamide
@<TRIPOS>ATOM
      1 C1          5.7605    4.1391   -0.0341 C.3       1 <0>         0.0221
      2 O1          4.5851    4.6043   -0.7005 O.3       1 <0>        -0.3103
      3 C2          3.4486    3.8778   -0.5269 C.ar      1 <0>         0.2160
      4 C3          3.4670    2.7413    0.2683 C.ar      1 <0>        -0.1986
      5 C4          2.3120    2.0065    0.4500 C.ar      1 <0>        -0.0571
      6 C5          1.1346    2.3987   -0.1735 C.ar      1 <0>         0.1002
      7 C6          1.1172    3.5361   -0.9695 C.ar      1 <0>         0.0003
      8 C7          2.2720    4.2734   -1.1453 C.ar      1 <0>        -0.6930
      9 S1          2.2503    5.7165   -2.1560 S.o2      1 <0>         2.6980
     10 O2          3.3555    5.6081   -3.0426 O.2       1 <0>        -0.9409
     11 O3          0.9152    5.8688   -2.6180 O.2       1 <0>        -0.9589
     12 N1          2.5601    7.0100   -1.1694 N.pl3     1 <0>        -0.9929
     13 C8          1.4610    7.7307   -0.5127 C.3       1 <0>         0.1194
     14 C9          1.7433    7.7821    0.9965 C.3       1 <0>        -0.1356
     15 C10         3.1254    8.3961    1.2305 C.3       1 <0>        -0.1170
     16 C11         4.1929    7.5201    0.5707 C.3       1 <0>        -0.1327
     17 C12         3.9388    7.4623   -0.9389 C.3       1 <0>         0.1217
     18 N2         -0.0348    1.6512    0.0051 N.pl3     1 <0>        -1.0587
     19 S2          0.0125   -0.0002   -0.1092 S.o2      1 <0>         2.7001
     20 O4          1.0672   -0.4358    0.7376 O.2       1 <0>        -0.9645
     21 O5         -1.3246   -0.4563    0.0432 O.2       1 <0>        -0.9600
     22 C13         0.4945   -0.3947   -1.7574 C.ar      1 <0>        -0.7913
     23 C14        -0.4565   -0.4515   -2.7598 C.ar      1 <0>         0.0262
     24 C15        -0.0805   -0.7550   -4.0537 C.ar      1 <0>        -0.2370
     25 C16         1.2511   -1.0142   -4.3453 C.ar      1 <0>         0.3323
     26 C17         2.2022   -0.9621   -3.3370 C.ar      1 <0>        -0.1960
     27 C18         1.8218   -0.6525   -2.0453 C.ar      1 <0>         0.0979
     28 N3          3.6235   -1.2376   -3.6446 N.pl3     1 <0>         0.0619
     29 O6          4.4583   -1.1914   -2.7589 O.2       1 <0>        -0.2495
     30 O7          3.9583   -1.5105   -4.7834 O.3       1 <0>        -0.1519
     31 H1          6.5925    4.8074   -0.2561 H         1 <0>         0.1073
     32 H2          5.5855    4.1218    1.0416 H         1 <0>         0.0610
     33 H3          6.0001    3.1335   -0.3795 H         1 <0>         0.0669
     34 H4          4.3837    2.4339    0.7495 H         1 <0>         0.1459
     35 H5          2.3253    1.1246    1.0733 H         1 <0>         0.1687
     36 H6          0.2009    3.8445   -1.4509 H         1 <0>         0.1545
     37 H7          1.3993    8.7437   -0.9104 H         1 <0>         0.0742
     38 H8          0.5219    7.2075   -0.6926 H         1 <0>         0.0901
     39 H9          1.7189    6.7731    1.4082 H         1 <0>         0.0673
     40 H10         0.9858    8.3938    1.4865 H         1 <0>         0.0730
     41 H11         3.3183    8.4589    2.3015 H         1 <0>         0.0617
     42 H12         3.1569    9.3956    0.7968 H         1 <0>         0.0632
     43 H13         4.1456    6.5136    0.9864 H         1 <0>         0.0679
     44 H14         5.1790    7.9454    0.7577 H         1 <0>         0.0718
     45 H15         4.6352    6.7619   -1.4001 H         1 <0>         0.1005
     46 H16         4.0751    8.4539   -1.3706 H         1 <0>         0.0694
     47 H17        -0.8739    2.1006    0.1919 H         1 <0>         0.4243
     48 H18        -1.4936   -0.2543   -2.5315 H         1 <0>         0.1279
     49 H19        -0.8230   -0.7952   -4.8370 H         1 <0>         0.1294
     50 H20         2.5619   -0.6123   -1.2598 H         1 <0>         0.1399
     51 O8          1.6227   -1.3189   -5.6165 O.3       1 <0>        -0.6150
@<TRIPOS>BOND
     1    1    2 1
     2    1   31 1
     3    1   32 1
     4    1   33 1
     5    2    3 1
     6    3    8 ar
     7    3    4 ar
     8    4    5 ar
     9    4   34 1
    10    5    6 ar
    11    5   35 1
    12    6    7 ar
    13    6   18 1
    14    7    8 ar
    15    7   36 1
    16    8    9 1
    17    9   10 2
    18    9   11 2
    19    9   12 1
    20   12   17 1
    21   12   13 1
    22   13   14 1
    23   13   37 1
    24   13   38 1
    25   14   15 1
    26   14   39 1
    27   14   40 1
    28   15   16 1
    29   15   41 1
    30   15   42 1
    31   16   17 1
    32   16   43 1
    33   16   44 1
    34   17   45 1
    35   17   46 1
    36   18   19 1
    37   18   47 1
    38   19   20 2
    39   19   21 2
    40   19   22 1
    41   22   27 ar
    42   22   23 ar
    43   23   24 ar
    44   23   48 1
    45   24   25 ar
    46   24   49 1
    47   25   26 ar
    48   25   51 1
    49   26   27 ar
    50   26   28 1
    51   27   50 1
    52   28   29 2
    53   28   30 1
@<TRIPOS>MOLECULE
ZINC16975061
   54    56     0     0     0
SMALL
USER_CHARGES
5-[(5S)-3-(3-methanesulfonamidophenyl)-5-(3-nitrophenyl)-4,5-dihydropyrazol-1-yl]-5-oxo-pentanoic acid
@<TRIPOS>ATOM
      1 C1         -3.1928   10.1714    2.6129 C.3       1 <0>        -0.6692
      2 S1         -4.4452    9.1388    3.4226 S.o2      1 <0>         2.6094
      3 O1         -5.7441    9.5055    2.9780 O.2       1 <0>        -0.9493
      4 O2         -4.1607    9.0217    4.8099 O.2       1 <0>        -0.9500
      5 N1         -4.2031    7.6186    2.8119 N.pl3     1 <0>        -1.0569
      6 C2         -3.0127    6.9390    3.0815 C.ar      1 <0>         0.1374
      7 C3         -2.4958    6.9275    4.3722 C.ar      1 <0>        -0.1374
      8 C4         -1.3184    6.2566    4.6446 C.ar      1 <0>        -0.0971
      9 C5         -0.6474    5.5935    3.6374 C.ar      1 <0>        -0.0971
     10 C6         -1.1580    5.5987    2.3370 C.ar      1 <0>        -0.0123
     11 C7         -2.3440    6.2811    2.0611 C.ar      1 <0>        -0.0942
     12 C8         -0.4432    4.8908    1.2584 C.2       1 <0>         0.1260
     13 N2         -0.8235    4.8312    0.0293 N.2       1 <0>        -0.2175
     14 N3          0.0282    4.0992   -0.7955 N.am      1 <0>        -0.4695
     15 C9          1.1507    3.5923    0.0099 C.3       1 <0>         0.1459
     16 H1          2.0968    3.9895   -0.3578 H         1 <0>         0.1103
     17 C10         0.8530    4.1234    1.4261 C.3       1 <0>        -0.1219
     18 C11         1.1711    2.0854    0.0021 C.ar      1 <0>        -0.0868
     19 C12        -0.0167    1.3779    0.0096 C.ar      1 <0>        -0.0490
     20 C13         0.0021   -0.0041    0.0020 C.ar      1 <0>        -0.1107
     21 C14         1.2086   -0.6790   -0.0136 C.ar      1 <0>        -0.0503
     22 C15         2.3960    0.0283   -0.0217 C.ar      1 <0>        -0.0412
     23 C16         2.3773    1.4107   -0.0136 C.ar      1 <0>        -0.0361
     24 N4          3.6878   -0.6943   -0.0384 N.pl3     1 <0>         0.0298
     25 O3          3.7043   -1.9121   -0.0451 O.2       1 <0>        -0.1590
     26 O4          4.7342   -0.0710   -0.0455 O.3       1 <0>        -0.1585
     27 C17        -0.1475    3.8893   -2.1151 C.2       1 <0>         0.5503
     28 O5          0.6606    3.2329   -2.7378 O.2       1 <0>        -0.4967
     29 C18        -1.3479    4.4700   -2.8172 C.3       1 <0>        -0.1244
     30 C19        -1.3080    4.0862   -4.2977 C.3       1 <0>        -0.0868
     31 C20        -2.5267    4.6757   -5.0105 C.3       1 <0>        -0.1565
     32 C21        -2.4873    4.2977   -6.4688 C.2       1 <0>         0.4577
     33 O6         -1.5778    3.6257   -6.8943 O.co2     1 <0>        -0.6381
     34 H2         -3.3406   10.1424    1.5333 H         1 <0>         0.1334
     35 H3         -3.2861   11.1988    2.9649 H         1 <0>         0.1333
     36 H4         -2.1992    9.7936    2.8539 H         1 <0>         0.1303
     37 H5         -4.8878    7.2002    2.2670 H         1 <0>         0.4299
     38 H6         -3.0159    7.4448    5.1648 H         1 <0>         0.1635
     39 H7         -0.9219    6.2517    5.6492 H         1 <0>         0.1372
     40 H8          0.2721    5.0702    3.8545 H         1 <0>         0.1329
     41 H9         -2.7416    6.2926    1.0570 H         1 <0>         0.1430
     42 H10         0.7215    3.2971    2.1246 H         1 <0>         0.1077
     43 H11         1.6511    4.7857    1.7617 H         1 <0>         0.1133
     44 H12        -0.9592    1.9051    0.0170 H         1 <0>         0.1368
     45 H13        -0.9258   -0.5567    0.0079 H         1 <0>         0.1508
     46 H14         1.2233   -1.7589   -0.0199 H         1 <0>         0.1556
     47 H15         3.3052    1.9634   -0.0192 H         1 <0>         0.1549
     48 H16        -2.2586    4.0776   -2.3646 H         1 <0>         0.0952
     49 H17        -1.3340    5.5558   -2.7228 H         1 <0>         0.0964
     50 H18        -0.3973    4.4786   -4.7503 H         1 <0>         0.0681
     51 H19        -1.3219    3.0004   -4.3921 H         1 <0>         0.0672
     52 H20        -3.4373    4.2834   -4.5579 H         1 <0>         0.0636
     53 H21        -2.5127    5.7616   -4.9161 H         1 <0>         0.0639
     54 O7         -3.4626    4.7076   -7.2949 O.co2     1 <0>        -0.7774
@<TRIPOS>BOND
     1    1    2 1
     2    1   34 1
     3    1   35 1
     4    1   36 1
     5    2    3 2
     6    2    4 2
     7    2    5 1
     8    5    6 1
     9    5   37 1
    10    6   11 ar
    11    6    7 ar
    12    7    8 ar
    13    7   38 1
    14    8    9 ar
    15    8   39 1
    16    9   10 ar
    17    9   40 1
    18   10   11 ar
    19   10   12 1
    20   11   41 1
    21   12   17 1
    22   12   13 2
    23   13   14 1
    24   14   15 1
    25   14   27 am
    26   15   16 1
    27   15   17 1
    28   15   18 1
    29   17   42 1
    30   17   43 1
    31   18   23 ar
    32   18   19 ar
    33   19   20 ar
    34   19   44 1
    35   20   21 ar
    36   20   45 1
    37   21   22 ar
    38   21   46 1
    39   22   23 ar
    40   22   24 1
    41   23   47 1
    42   24   25 2
    43   24   26 1
    44   27   28 2
    45   27   29 1
    46   29   30 1
    47   29   48 1
    48   29   49 1
    49   30   31 1
    50   30   50 1
    51   30   51 1
    52   31   32 1
    53   31   52 1
    54   31   53 1
    55   32   33 2
    56   32   54 1
@<TRIPOS>MOLECULE
ZINC14037751
   53    55     0     0     0
SMALL
USER_CHARGES
(2R)-N-[4-[(4,6-dimethylpyrimidin-2-yl)sulfamoyl]phenyl]-2-(4-nitrophenoxy)propanamide
@<TRIPOS>ATOM
      1 C1          1.8854    5.1805    0.5766 C.3       1 <0>        -0.1025
      2 C2          0.6209    4.8779    1.3385 C.ar      1 <0>         0.2083
      3 C3          0.2749    5.6299    2.4503 C.ar      1 <0>        -0.3324
      4 C4         -0.8967    5.3188    3.1222 C.ar      1 <0>         0.2013
      5 N1         -1.6453    4.3196    2.6852 N.ar      1 <0>        -0.5507
      6 C5         -1.2860    3.6201    1.6188 C.ar      1 <0>         0.5916
      7 N2         -0.1697    3.8883    0.9574 N.ar      1 <0>        -0.6132
      8 N3         -2.0930    2.5811    1.1890 N.2       1 <0>        -1.0105
      9 S1         -1.8808    1.9386   -0.3225 S.o2      1 <0>         2.6246
     10 O1         -1.8280    3.0343   -1.2258 O.2       1 <0>        -1.0214
     11 O2         -2.8284    0.8879   -0.4539 O.2       1 <0>        -0.9951
     12 C6         -0.2877    1.1863   -0.3498 C.ar      1 <0>        -0.6602
     13 C7          0.8166    1.9228   -0.7374 C.ar      1 <0>         0.0306
     14 C8          2.0658    1.3345   -0.7653 C.ar      1 <0>        -0.1786
     15 C9          2.2122    0.0017   -0.4036 C.ar      1 <0>         0.1750
     16 C10         1.1012   -0.7353   -0.0149 C.ar      1 <0>        -0.1551
     17 C11        -0.1453   -0.1411    0.0109 C.ar      1 <0>        -0.0095
     18 N4          3.4763   -0.5975   -0.4313 N.am      1 <0>        -0.6764
     19 C12         3.5967   -1.9028   -0.7449 C.2       1 <0>         0.5161
     20 O3          2.6225   -2.5346   -1.0952 O.2       1 <0>        -0.4912
     21 C13         4.9417   -2.5771   -0.6603 C.3       1 <0>         0.0647
     22 H1          5.6678   -2.0687   -1.3117 H         1 <0>         0.1069
     23 C14         5.4090   -2.6021    0.7964 C.3       1 <0>        -0.1800
     24 O4          4.8352   -3.9155   -1.1494 O.3       1 <0>        -0.2746
     25 C15         5.9706   -4.4905   -1.6260 C.ar      1 <0>         0.1900
     26 C16         7.1828   -3.8236   -1.5239 C.ar      1 <0>        -0.2163
     27 C17         8.3363   -4.4123   -2.0048 C.ar      1 <0>        -0.0087
     28 C18         8.2817   -5.6605   -2.5970 C.ar      1 <0>        -0.0881
     29 C19         7.0739   -6.3250   -2.7048 C.ar      1 <0>        -0.0118
     30 C20         5.9184   -5.7428   -2.2207 C.ar      1 <0>        -0.1470
     31 N5          9.5181   -6.2863   -3.1170 N.pl3     1 <0>         0.0353
     32 O5          9.4711   -7.3856   -3.6392 O.2       1 <0>        -0.1643
     33 O6         10.5826   -5.7019   -3.0226 O.3       1 <0>        -0.1667
     34 C21        -1.3130    6.1096    4.3356 C.3       1 <0>        -0.1015
     35 H2          2.4011    6.0316    1.0454 H         1 <0>         0.0681
     36 H3          1.6349    5.4318   -0.4646 H         1 <0>         0.0764
     37 H4          2.5431    4.2990    0.5929 H         1 <0>         0.0721
     38 H5          0.9048    6.4404    2.7859 H         1 <0>         0.1208
     39 H6          0.7021    2.9593   -1.0185 H         1 <0>         0.1481
     40 H7          2.9279    1.9103   -1.0681 H         1 <0>         0.1235
     41 H8          1.2118   -1.7719    0.2673 H         1 <0>         0.1303
     42 H9         -1.0097   -0.7135    0.3135 H         1 <0>         0.1347
     43 H10         4.3719   -0.0033   -0.1971 H         1 <0>         0.4327
     44 H11         6.3908   -3.0943    0.8581 H         1 <0>         0.0796
     45 H12         4.6811   -3.1582    1.4055 H         1 <0>         0.0833
     46 H13         5.4910   -1.5718    1.1729 H         1 <0>         0.0887
     47 H14         7.2253   -2.8469   -1.0650 H         1 <0>         0.1547
     48 H15         9.2810   -3.8955   -1.9215 H         1 <0>         0.1576
     49 H16         7.0339   -7.3000   -3.1675 H         1 <0>         0.1617
     50 H17         4.9754   -6.2624   -2.3047 H         1 <0>         0.1591
     51 H18        -2.2627    5.7128    4.7238 H         1 <0>         0.0751
     52 H19        -1.4432    7.1660    4.0578 H         1 <0>         0.0729
     53 H20        -0.5370    6.0273    5.1108 H         1 <0>         0.0723
@<TRIPOS>BOND
     1    1    2 1
     2    1   35 1
     3    1   36 1
     4    1   37 1
     5    2    7 ar
     6    2    3 ar
     7    3    4 ar
     8    3   38 1
     9    4    5 ar
    10    4   34 1
    11    5    6 ar
    12    6    7 ar
    13    6    8 1
    14    8    9 1
    15    9   10 2
    16    9   11 2
    17    9   12 1
    18   12   17 ar
    19   12   13 ar
    20   13   14 ar
    21   13   39 1
    22   14   15 ar
    23   14   40 1
    24   15   16 ar
    25   15   18 1
    26   16   17 ar
    27   16   41 1
    28   17   42 1
    29   18   19 am
    30   18   43 1
    31   19   20 2
    32   19   21 1
    33   21   22 1
    34   21   23 1
    35   21   24 1
    36   23   44 1
    37   23   45 1
    38   23   46 1
    39   24   25 1
    40   25   30 ar
    41   25   26 ar
    42   26   27 ar
    43   26   47 1
    44   27   28 ar
    45   27   48 1
    46   28   29 ar
    47   28   31 1
    48   29   30 ar
    49   29   49 1
    50   30   50 1
    51   31   32 2
    52   31   33 1
    53   34   51 1
    54   34   52 1
    55   34   53 1
@<TRIPOS>MOLECULE
ZINC36596586
   61    63     0     0     0
SMALL
USER_CHARGES

@<TRIPOS>ATOM
      1 C1          2.6285   -9.6362   -1.5410 C.3       1 <0>        -0.0730
      2 C2          2.7934   -8.2131   -1.0735 C.2       1 <0>        -0.0166
      3 C3          3.9399   -7.6525   -0.6487 C.2       1 <0>        -0.2198
      4 C4          3.6400   -6.3130   -0.3098 C.2       1 <0>        -0.2078
      5 C5          2.3280   -6.1353   -0.5478 C.2       1 <0>        -0.0113
      6 O1          1.8216   -7.2878   -1.0157 O.3       1 <0>        -0.1552
      7 C6          1.5583   -4.8579   -0.3314 C.3       1 <0>         0.1724
      8 N1          1.7070   -3.9934   -1.5048 N.am      1 <0>        -0.6024
      9 C7          2.7889   -3.0069   -1.5554 C.3       1 <0>         0.1625
     10 H1          3.3490   -3.1291   -2.4824 H         1 <0>         0.1089
     11 C8          3.7107   -3.2116   -0.3809 C.ar      1 <0>        -0.0751
     12 C9          3.2123   -3.1493    0.9076 C.ar      1 <0>        -0.1133
     13 C10         4.0554   -3.3367    1.9871 C.ar      1 <0>        -0.1001
     14 C11         5.3986   -3.5863    1.7810 C.ar      1 <0>        -0.1357
     15 C12         5.9009   -3.6493    0.4896 C.ar      1 <0>         0.1072
     16 C13         5.0515   -3.4669   -0.5924 C.ar      1 <0>        -0.1209
     17 O2          7.2217   -3.8948    0.2842 O.3       1 <0>        -0.4961
     18 C14         2.2056   -1.6184   -1.5001 C.2       1 <0>         0.5098
     19 O3          1.0190   -1.4667   -1.3007 O.2       1 <0>        -0.5008
     20 N2          3.0027   -0.5453   -1.6723 N.am      1 <0>        -0.7144
     21 C15         2.4356    0.8044   -1.6185 C.3       1 <0>         0.1800
     22 C16         1.7965    1.0349   -0.2477 C.3       1 <0>        -0.1599
     23 C17         3.5456    1.8332   -1.8432 C.3       1 <0>        -0.1557
     24 C18         1.3727    0.9548   -2.7086 C.3       1 <0>        -0.1858
     25 C19         0.8486   -4.1057   -2.5377 C.2       1 <0>         0.5900
     26 O4          0.2376   -5.1426   -2.7105 O.2       1 <0>        -0.4908
     27 C20         0.6502   -2.9703   -3.4588 C.ar      1 <0>        -0.2497
     28 C21         1.6895   -2.0669   -3.6944 C.ar      1 <0>        -0.0137
     29 C22         1.4978   -1.0087   -4.5557 C.ar      1 <0>        -0.1725
     30 C23         0.2783   -0.8356   -5.1900 C.ar      1 <0>        -0.0141
     31 C24        -0.7573   -1.7206   -4.9658 C.ar      1 <0>        -0.2345
     32 C25        -0.5800   -2.7951   -4.1067 C.ar      1 <0>         0.3348
     33 O5         -1.5947   -3.6690   -3.8901 O.3       1 <0>        -0.6362
     34 N3          2.5997   -0.0520   -4.8041 N.pl3     1 <0>         0.1035
     35 O6          3.6649   -0.2002   -4.2518 O.2       1 <0>        -0.2229
     36 O7          2.4345    0.8775   -5.5593 O.3       1 <0>        -0.2404
     37 H2          1.5910   -9.8063   -1.8287 H         1 <0>         0.0753
     38 H3          3.2772   -9.8144   -2.3987 H         1 <0>         0.0816
     39 H4          2.8981  -10.3174   -0.7339 H         1 <0>         0.0810
     40 H5          4.9044   -8.1334   -0.5792 H         1 <0>         0.1414
     41 H6          4.3314   -5.5744    0.0679 H         1 <0>         0.1454
     42 H7          0.5037   -5.0900   -0.1825 H         1 <0>         0.0935
     43 H8          1.9453   -4.3451    0.5491 H         1 <0>         0.1293
     44 H9          2.1628   -2.9536    1.0708 H         1 <0>         0.1377
     45 H10         3.6637   -3.2876    2.9924 H         1 <0>         0.1318
     46 H11         6.0569   -3.7319    2.6247 H         1 <0>         0.1302
     47 H12         5.4394   -3.5202   -1.5989 H         1 <0>         0.1356
     48 H13         7.4393   -4.8335    0.2031 H         1 <0>         0.3905
     49 H14         3.9517   -0.6667   -1.8318 H         1 <0>         0.4011
     50 H15         2.5538    0.9277    0.5289 H         1 <0>         0.0507
     51 H16         1.3746    2.0391   -0.2077 H         1 <0>         0.0568
     52 H17         1.0057    0.3020   -0.0876 H         1 <0>         0.0770
     53 H18         4.0010    1.6690   -2.8198 H         1 <0>         0.0748
     54 H19         3.1238    2.8374   -1.8032 H         1 <0>         0.0652
     55 H20         4.3029    1.7260   -1.0666 H         1 <0>         0.0572
     56 H21         0.5819    0.2219   -2.5486 H         1 <0>         0.0858
     57 H22         0.9508    1.9591   -2.6687 H         1 <0>         0.0535
     58 H23         1.8280    0.7906   -3.6853 H         1 <0>         0.0643
     59 H24         2.6418   -2.1977   -3.2020 H         1 <0>         0.1432
     60 H25         0.1368   -0.0033   -5.8635 H         1 <0>         0.1240
     61 H26        -1.7052   -1.5788   -5.4636 H         1 <0>         0.1232
@<TRIPOS>BOND
     1    1    2 1
     2    1   37 1
     3    1   38 1
     4    1   39 1
     5    2    6 1
     6    2    3 2
     7    3    4 1
     8    3   40 1
     9    4    5 2
    10    4   41 1
    11    5    6 1
    12    5    7 1
    13    7    8 1
    14    7   42 1
    15    7   43 1
    16    8    9 1
    17    8   25 am
    18    9   10 1
    19    9   11 1
    20    9   18 1
    21   11   16 ar
    22   11   12 ar
    23   12   13 ar
    24   12   44 1
    25   13   14 ar
    26   13   45 1
    27   14   15 ar
    28   14   46 1
    29   15   16 ar
    30   15   17 1
    31   16   47 1
    32   17   48 1
    33   18   19 2
    34   18   20 am
    35   20   21 1
    36   20   49 1
    37   21   22 1
    38   21   23 1
    39   21   24 1
    40   22   50 1
    41   22   51 1
    42   22   52 1
    43   23   53 1
    44   23   54 1
    45   23   55 1
    46   24   56 1
    47   24   57 1
    48   24   58 1
    49   25   26 2
    50   25   27 1
    51   27   32 ar
    52   27   28 ar
    53   28   29 ar
    54   28   59 1
    55   29   30 ar
    56   29   34 1
    57   30   31 ar
    58   30   60 1
    59   31   32 ar
    60   31   61 1
    61   32   33 1
    62   34   35 2
    63   34   36 1
@<TRIPOS>MOLECULE
ZINC40987535
   58    62     0     0     0
SMALL
USER_CHARGES

@<TRIPOS>ATOM
      1 C1         -1.3015   -2.8012    1.5362 C.ar      1 <0>        -0.3467
      2 C2         -0.6214   -3.8414    2.1499 C.ar      1 <0>         0.1769
      3 N1          0.6762   -3.9800    1.9342 N.ar      1 <0>        -0.5530
      4 C3          1.3248   -3.1387    1.1423 C.ar      1 <0>         0.5946
      5 N2          0.7045   -2.1341    0.5410 N.ar      1 <0>        -0.6228
      6 C4         -0.5924   -1.9396    0.7141 C.ar      1 <0>         0.1869
      7 N3          2.6826   -3.3132    0.9386 N.2       1 <0>        -1.0498
      8 S1          3.5124   -2.2732   -0.0473 S.o2      1 <0>         2.6425
      9 O1          3.0105   -2.4721   -1.3617 O.2       1 <0>        -1.0179
     10 O2          3.4921   -1.0043    0.5920 O.2       1 <0>        -1.0171
     11 C5          5.1933   -2.8014   -0.0649 C.ar      1 <0>        -0.6355
     12 C6          6.0819   -2.3062    0.8719 C.ar      1 <0>        -0.0017
     13 C7          7.4001   -2.7179    0.8606 C.ar      1 <0>        -0.1449
     14 C8          7.8329   -3.6305   -0.0927 C.ar      1 <0>         0.1797
     15 C9          6.9378   -4.1262   -1.0319 C.ar      1 <0>        -0.1678
     16 C10         5.6197   -3.7145   -1.0119 C.ar      1 <0>        -0.0021
     17 N4          9.1673   -4.0490   -0.1072 N.am      1 <0>        -0.6615
     18 C11         9.8507   -4.1620    1.0489 C.2       1 <0>         0.6031
     19 O3          9.2821   -3.9934    2.1102 O.2       1 <0>        -0.4979
     20 C12        11.2904   -4.4905    1.0266 C.2       1 <0>         0.0007
     21 C13        12.1329   -4.6470    2.1400 C.2       1 <0>        -0.1324
     22 C14        13.3590   -4.9402    1.6411 C.2       1 <0>         0.0122
     23 N5         13.2494   -4.9594    0.3026 N.pl3     1 <0>        -0.2667
     24 N6         12.0361   -4.7002   -0.0449 N.2       1 <0>        -0.2648
     25 C15        14.3472   -5.2402   -0.6260 C.3       1 <0>         0.1552
     26 H1         15.2569   -5.4418   -0.0603 H         1 <0>         0.1308
     27 C16        13.9929   -6.4701   -1.4783 C.3       1 <0>        -0.1438
     28 C17        15.0118   -6.5569   -2.6503 C.3       1 <0>        -0.5701
     29 S2         15.1489   -4.7780   -3.1103 S.o2      1 <0>         2.3803
     30 O4         16.5188   -4.4557   -3.3072 O.2       1 <0>        -0.9285
     31 O5         14.2088   -4.4921   -4.1368 O.2       1 <0>        -0.9184
     32 C18        14.5727   -4.0127   -1.5413 C.3       1 <0>        -0.6045
     33 C19        14.5768   -5.1849    2.4947 C.3       1 <0>        -0.0494
     34 C20        14.2950   -4.6466    3.9033 C.3       1 <0>        -0.1146
     35 C21        12.9502   -5.1839    4.4002 C.3       1 <0>        -0.1213
     36 C22        11.8117   -4.5311    3.6045 C.3       1 <0>        -0.0464
     37 H2         -2.3619   -2.6677    1.6916 H         1 <0>         0.1218
     38 H3         -1.1446   -4.5301    2.7967 H         1 <0>         0.1466
     39 H4         -1.0926   -1.1194    0.2207 H         1 <0>         0.1429
     40 H5          5.7447   -1.5966    1.6129 H         1 <0>         0.1407
     41 H6          8.0938   -2.3302    1.5920 H         1 <0>         0.1380
     42 H7          7.2713   -4.8357   -1.7747 H         1 <0>         0.1301
     43 H8          4.9221   -4.1029   -1.7391 H         1 <0>         0.1416
     44 H9          9.6009   -4.2581   -0.9494 H         1 <0>         0.4161
     45 H10        14.0558   -7.3712   -0.8683 H         1 <0>         0.1112
     46 H11        12.9833   -6.3644   -1.8753 H         1 <0>         0.1091
     47 H12        15.9697   -6.9514   -2.3115 H         1 <0>         0.1455
     48 H13        14.6141   -7.1478   -3.4754 H         1 <0>         0.1519
     49 H14        13.6406   -3.4692   -1.6956 H         1 <0>         0.1569
     50 H15        15.3393   -3.3576   -1.1274 H         1 <0>         0.1523
     51 H16        14.7816   -6.2543    2.5444 H         1 <0>         0.0846
     52 H17        15.4348   -4.6655    2.0679 H         1 <0>         0.0786
     53 H18        15.0867   -4.9686    4.5798 H         1 <0>         0.0747
     54 H19        14.2627   -3.5575    3.8757 H         1 <0>         0.0696
     55 H20        12.9170   -6.2645    4.2614 H         1 <0>         0.0650
     56 H21        12.8343   -4.9501    5.4585 H         1 <0>         0.0728
     57 H22        11.7269   -3.4800    3.8801 H         1 <0>         0.0790
     58 H23        10.8736   -5.0440    3.8167 H         1 <0>         0.0876
@<TRIPOS>BOND
     1    1    6 ar
     2    1    2 ar
     3    1   37 1
     4    2    3 ar
     5    2   38 1
     6    3    4 ar
     7    4    5 ar
     8    4    7 1
     9    5    6 ar
    10    6   39 1
    11    7    8 1
    12    8    9 2
    13    8   10 2
    14    8   11 1
    15   11   16 ar
    16   11   12 ar
    17   12   13 ar
    18   12   40 1
    19   13   14 ar
    20   13   41 1
    21   14   15 ar
    22   14   17 1
    23   15   16 ar
    24   15   42 1
    25   16   43 1
    26   17   18 am
    27   17   44 1
    28   18   19 2
    29   18   20 1
    30   20   24 2
    31   20   21 1
    32   21   36 1
    33   21   22 2
    34   22   23 1
    35   22   33 1
    36   23   24 1
    37   23   25 1
    38   25   26 1
    39   25   32 1
    40   25   27 1
    41   27   28 1
    42   27   45 1
    43   27   46 1
    44   28   29 1
    45   28   47 1
    46   28   48 1
    47   29   30 2
    48   29   31 2
    49   29   32 1
    50   32   49 1
    51   32   50 1
    52   33   34 1
    53   33   51 1
    54   33   52 1
    55   34   35 1
    56   34   53 1
    57   34   54 1
    58   35   36 1
    59   35   55 1
    60   35   56 1
    61   36   57 1
    62   36   58 1
@<TRIPOS>MOLECULE
ZINC05743385
   28    29     0     0     0
SMALL
USER_CHARGES
(1R,2S,4R,5S,6S,7R)-5-hydroxy-4-(hydroxymethyl)-2-methoxy-3-oxabicyclo[4.1.0]heptane-7-carboxylic acid
@<TRIPOS>ATOM
      1 C1          1.2801    2.0237    0.0007 C.3       1 <0>         0.0337
      2 O1         -0.0173    1.4248    0.0099 O.3       1 <0>        -0.3985
      3 C2          0.0021   -0.0041    0.0020 C.3       1 <0>         0.2836
      4 H1          0.6448   -0.3449   -0.8097 H         1 <0>         0.1087
      5 C3         -1.4081   -0.5157   -0.2367 C.3       1 <0>        -0.1551
      6 H2         -1.9747    0.0371   -0.9860 H         1 <0>         0.1194
      7 C4         -2.2044   -1.0583    0.9448 C.3       1 <0>        -0.1288
      8 H3         -3.2737   -0.8481    0.9686 H         1 <0>         0.1289
      9 C5         -1.7002   -2.0082   -0.1526 C.3       1 <0>        -0.1487
     10 H4         -0.8710   -2.6704    0.0965 H         1 <0>         0.1056
     11 C6         -2.7202   -2.5730   -1.1073 C.2       1 <0>         0.4877
     12 O2         -3.8859   -2.2777   -0.9901 O.co2     1 <0>        -0.6291
     13 C7         -1.5298   -1.1874    2.3069 C.3       1 <0>         0.1165
     14 H5         -1.2653   -2.2312    2.4765 H         1 <0>         0.0658
     15 C8         -0.2730   -0.3387    2.3838 C.3       1 <0>         0.0697
     16 H6         -0.5594    0.7064    2.5014 H         1 <0>         0.0743
     17 O3          0.5323   -0.4634    1.2300 O.3       1 <0>        -0.3748
     18 C9          0.5415   -0.7690    3.6054 C.3       1 <0>         0.0821
     19 O4          1.6675    0.0978    3.7566 O.3       1 <0>        -0.5616
     20 O5         -2.4421   -0.7653    3.3226 O.3       1 <0>        -0.5510
     21 H7          1.1793    3.1090    0.0075 H         1 <0>         0.0802
     22 H8          1.8338    1.7047    0.8837 H         1 <0>         0.0503
     23 H9          1.8168    1.7143   -0.8961 H         1 <0>         0.0391
     24 H10        -0.0830   -0.7122    4.4969 H         1 <0>         0.0585
     25 H11         0.8875   -1.7936    3.4689 H         1 <0>         0.0569
     26 H12         2.2301   -0.1166    4.5133 H         1 <0>         0.3765
     27 H13        -2.0844   -0.8187    4.2194 H         1 <0>         0.3699
     28 O6         -2.3337   -3.4042   -2.0879 O.co2     1 <0>        -0.7600
@<TRIPOS>BOND
     1    1    2 1
     2    1   21 1
     3    1   22 1
     4    1   23 1
     5    2    3 1
     6    3    4 1
     7    3   17 1
     8    3    5 1
     9    5    6 1
    10    5    9 1
    11    5    7 1
    12    7    8 1
    13    7    9 1
    14    7   13 1
    15    9   10 1
    16    9   11 1
    17   11   12 2
    18   11   28 1
    19   13   14 1
    20   13   15 1
    21   13   20 1
    22   15   16 1
    23   15   17 1
    24   15   18 1
    25   18   19 1
    26   18   24 1
    27   18   25 1
    28   19   26 1
    29   20   27 1
@<TRIPOS>MOLECULE
ZINC35601026
   30    30     0     0     0
SMALL
USER_CHARGES

@<TRIPOS>ATOM
      1 C1         -0.0178    1.4608    0.0101 C.3       1 <0>         0.0661
      2 N1          0.0021   -0.0041    0.0020 N.pl3     1 <0>        -0.3999
      3 C2          0.0082   -0.7838   -1.0981 C.2       1 <0>         0.0883
      4 C3          0.0282   -2.0850   -0.7177 C.2       1 <0>        -0.7575
      5 C4          0.0350   -2.1234    0.6784 C.2       1 <0>        -0.0875
      6 C5          0.0237   -0.8130    1.1175 C.2       1 <0>        -0.0348
      7 C6          0.0300   -0.3672    2.5093 C.2       1 <0>         0.5485
      8 O1          0.0155    0.8298    2.7690 O.co2     1 <0>        -0.6904
      9 O2          0.0499   -1.1904    3.4161 O.co2     1 <0>        -0.6701
     10 S1          0.0426   -3.4801   -1.7938 S.o2      1 <0>         2.7266
     11 O3         -0.4895   -4.5699   -1.0531 O.2       1 <0>        -0.9659
     12 O4         -0.5203   -3.0490   -3.0253 O.2       1 <0>        -0.9777
     13 N2          1.6283   -3.8457   -2.1004 N.pl3     1 <0>        -1.1212
     14 C7          2.4983   -4.3017   -1.0135 C.3       1 <0>         0.1194
     15 C8          3.7687   -4.9189   -1.6019 C.3       1 <0>        -0.1251
     16 C9          4.6773   -5.3951   -0.4668 C.3       1 <0>         0.0742
     17 O5          5.8638   -5.9715   -1.0163 O.3       1 <0>        -0.5772
     18 H1          1.0048    1.8381    0.0023 H         1 <0>         0.0723
     19 H2         -0.5450    1.8219   -0.8730 H         1 <0>         0.0725
     20 H3         -0.5280    1.8123    0.9069 H         1 <0>         0.1141
     21 H4         -0.0014   -0.4289   -2.1181 H         1 <0>         0.1703
     22 H5          0.0503   -3.0086    1.2970 H         1 <0>         0.1496
     23 H6          1.9812   -3.7578   -2.9997 H         1 <0>         0.4136
     24 H7          2.7650   -3.4544   -0.3818 H         1 <0>         0.0717
     25 H8          1.9740   -5.0486   -0.4174 H         1 <0>         0.0831
     26 H9          3.5021   -5.7661   -2.2337 H         1 <0>         0.0769
     27 H10         4.2931   -4.1720   -2.1980 H         1 <0>         0.0755
     28 H11         4.9439   -4.5478    0.1650 H         1 <0>         0.0521
     29 H12         4.1529   -6.1420    0.1293 H         1 <0>         0.0521
     30 H13         6.4875   -6.2959   -0.3523 H         1 <0>         0.3807
@<TRIPOS>BOND
     1    1    2 1
     2    1   18 1
     3    1   19 1
     4    1   20 1
     5    2    6 1
     6    2    3 1
     7    3    4 2
     8    3   21 1
     9    4    5 1
    10    4   10 1
    11    5    6 2
    12    5   22 1
    13    6    7 1
    14    7    8 2
    15    7    9 1
    16   10   11 2
    17   10   12 2
    18   10   13 1
    19   13   14 1
    20   13   23 1
    21   14   15 1
    22   14   24 1
    23   14   25 1
    24   15   16 1
    25   15   26 1
    26   15   27 1
    27   16   17 1
    28   16   28 1
    29   16   29 1
    30   17   30 1
@<TRIPOS>MOLECULE
ZINC40565992
   34    34     0     0     0
SMALL
USER_CHARGES

@<TRIPOS>ATOM
      1 C1         -0.0187    1.5258    0.0104 C.3       1 <0>        -0.1805
      2 C2          0.0021   -0.0041    0.0020 C.3       1 <0>         0.1123
      3 H1          0.5123   -0.3556   -0.8948 H         1 <0>         0.0492
      4 C3          0.7421   -0.5109    1.2415 C.3       1 <0>         0.0951
      5 H2          0.2319   -0.1594    2.1383 H         1 <0>         0.0873
      6 C4          0.7625   -2.0177    1.2333 C.2       1 <0>         0.4934
      7 O1          1.8087   -2.6121    1.0367 O.co2     1 <0>        -0.6953
      8 O2         -0.2672   -2.6424    1.4231 O.co2     1 <0>        -0.6790
      9 N1          2.1165   -0.0038    1.2311 N.am      1 <0>        -0.7034
     10 C5          2.7950    0.1277    2.3882 C.2       1 <0>         0.7145
     11 O3          2.2664   -0.1744    3.4407 O.2       1 <0>        -0.5887
     12 N2          4.0594    0.5943    2.3786 N.am      1 <0>        -0.6314
     13 C6          4.6963    0.9583    1.1105 C.3       1 <0>         0.0772
     14 C7          4.7969    0.7373    3.6363 C.3       1 <0>         0.1508
     15 H3          4.1579    0.4049    4.4544 H         1 <0>         0.1112
     16 C8          5.1294    2.2142    3.8437 C.3       1 <0>        -0.1366
     17 C9          6.4279    2.3612    4.6852 C.3       1 <0>        -0.0575
     18 S1          7.4234    0.9864    3.9576 S.3       1 <0>        -0.3142
     19 C10         6.0430   -0.1681    3.5838 C.3       1 <0>        -0.0692
     20 O4         -1.3386   -0.4987    0.0122 O.3       1 <0>        -0.5327
     21 H4          1.0039    1.9031    0.0027 H         1 <0>         0.0601
     22 H5         -0.5459    1.8868   -0.8726 H         1 <0>         0.0528
     23 H6         -0.5289    1.8773    0.9072 H         1 <0>         0.0615
     24 H7          2.5382    0.2372    0.3915 H         1 <0>         0.3863
     25 H8          4.5008    2.0086    0.8941 H         1 <0>         0.0510
     26 H9          5.7717    0.7966    1.1845 H         1 <0>         0.0747
     27 H10         4.2902    0.3406    0.3095 H         1 <0>         0.0708
     28 H11         5.2720    2.6913    2.8742 H         1 <0>         0.0827
     29 H12         4.3047    2.6997    4.3655 H         1 <0>         0.0849
     30 H13         6.9029    3.3278    4.5172 H         1 <0>         0.1081
     31 H14         6.2356    2.1948    5.7451 H         1 <0>         0.0931
     32 H15         5.9826   -0.9501    4.3407 H         1 <0>         0.0994
     33 H16         6.1625   -0.6010    2.5906 H         1 <0>         0.1089
     34 H17        -1.8677   -0.2163   -0.7464 H         1 <0>         0.3633
@<TRIPOS>BOND
     1    1    2 1
     2    1   21 1
     3    1   22 1
     4    1   23 1
     5    2    3 1
     6    2    4 1
     7    2   20 1
     8    4    5 1
     9    4    6 1
    10    4    9 1
    11    6    7 2
    12    6    8 1
    13    9   10 am
    14    9   24 1
    15   10   11 2
    16   10   12 am
    17   12   13 1
    18   12   14 1
    19   13   25 1
    20   13   26 1
    21   13   27 1
    22   14   15 1
    23   14   19 1
    24   14   16 1
    25   16   17 1
    26   16   28 1
    27   16   29 1
    28   17   18 1
    29   17   30 1
    30   17   31 1
    31   18   19 1
    32   19   32 1
    33   19   33 1
    34   20   34 1
@<TRIPOS>MOLECULE
ZINC42397171
   36    36     0     0     0
SMALL
USER_CHARGES

@<TRIPOS>ATOM
      1 C1         -0.0187    1.5258    0.0104 C.3       1 <0>        -0.1384
      2 C2          0.0021   -0.0041    0.0020 C.3       1 <0>         0.1172
      3 C3          0.7421   -0.5109    1.2415 C.3       1 <0>        -0.1378
      4 C4         -1.4117   -0.5257    0.0127 C.2       1 <0>         0.5040
      5 O1         -1.8097   -1.2271   -0.9017 O.co2     1 <0>        -0.6949
      6 O2         -2.1576   -0.2463    0.9358 O.co2     1 <0>        -0.6833
      7 N1          0.6878   -0.4765   -1.2033 N.am      1 <0>        -0.7094
      8 C5          1.9715   -0.1323   -1.4270 C.2       1 <0>         0.7270
      9 O3          2.5605    0.5704   -0.6285 O.2       1 <0>        -0.5860
     10 N2          2.6023   -0.5669   -2.5359 N.am      1 <0>        -0.6255
     11 C6          2.0087   -1.4151   -3.5854 C.3       1 <0>         0.0972
     12 C7          2.8466   -1.1204   -4.8545 C.3       1 <0>        -0.1280
     13 C8          4.2689   -0.9543   -4.2571 C.3       1 <0>        -0.1225
     14 C9          3.9945   -0.2684   -2.9023 C.3       1 <0>         0.1421
     15 H1          4.1303    0.8090   -2.9959 H         1 <0>         0.0965
     16 C10         4.9290   -0.8166   -1.8548 C.2       1 <0>         0.5008
     17 O4          4.4830   -1.4021   -0.8909 O.2       1 <0>        -0.5048
     18 N3          6.2604   -0.6561   -1.9892 N.am      1 <0>        -0.7419
     19 C11         7.1689   -1.1890   -0.9709 C.3       1 <0>         0.0909
     20 H2          1.0039    1.9031    0.0027 H         1 <0>         0.0649
     21 H3         -0.5459    1.8868   -0.8726 H         1 <0>         0.0400
     22 H4         -0.5289    1.8773    0.9072 H         1 <0>         0.0611
     23 H5          0.2319   -0.1594    2.1383 H         1 <0>         0.0595
     24 H6          0.7568   -1.6008    1.2356 H         1 <0>         0.0402
     25 H7          1.7647   -0.1336    1.2338 H         1 <0>         0.0669
     26 H8          0.2179   -1.0371   -1.8404 H         1 <0>         0.4000
     27 H9          2.0895   -2.4676   -3.3134 H         1 <0>         0.0662
     28 H10         0.9657   -1.1435   -3.7479 H         1 <0>         0.0814
     29 H11         2.8105   -1.9590   -5.5500 H         1 <0>         0.0860
     30 H12         2.5154   -0.2006   -5.3365 H         1 <0>         0.0800
     31 H13         4.7425   -1.9254   -4.1130 H         1 <0>         0.0794
     32 H14         4.8821   -0.3156   -4.8929 H         1 <0>         0.0889
     33 H15         6.6172   -0.1879   -2.7601 H         1 <0>         0.3977
     34 H16         6.9443   -0.7305   -0.0078 H         1 <0>         0.0577
     35 H17         7.0398   -2.2689   -0.8981 H         1 <0>         0.0557
     36 H18         8.1985   -0.9641   -1.2490 H         1 <0>         0.0713
@<TRIPOS>BOND
     1    1    2 1
     2    1   20 1
     3    1   21 1
     4    1   22 1
     5    2    3 1
     6    2    4 1
     7    2    7 1
     8    3   23 1
     9    3   24 1
    10    3   25 1
    11    4    5 2
    12    4    6 1
    13    7    8 am
    14    7   26 1
    15    8    9 2
    16    8   10 am
    17   10   14 1
    18   10   11 1
    19   11   12 1
    20   11   27 1
    21   11   28 1
    22   12   13 1
    23   12   29 1
    24   12   30 1
    25   13   14 1
    26   13   31 1
    27   13   32 1
    28   14   15 1
    29   14   16 1
    30   16   17 2
    31   16   18 am
    32   18   19 1
    33   18   33 1
    34   19   34 1
    35   19   35 1
    36   19   36 1
@<TRIPOS>MOLECULE
ZINC49502851
   38    38     0     0     0
SMALL
USER_CHARGES

@<TRIPOS>ATOM
      1 C1         -0.2820    1.5856   -0.1106 C.3       1 <0>        -0.1636
      2 C2         -0.0105    0.0893    0.0578 C.3       1 <0>         0.1670
      3 H1         -0.9561   -0.4412    0.1695 H         1 <0>         0.0871
      4 C3          0.7272   -0.4372   -1.1749 C.3       1 <0>         0.0462
      5 N1          1.0755   -1.8496   -0.9710 N.3       1 <0>        -0.5310
      6 C4          2.1576   -2.2615   -1.8769 C.3       1 <0>         0.0185
      7 C5          2.5288   -3.7189   -1.5904 C.3       1 <0>         0.0631
      8 O1          1.3649   -4.5382   -1.7295 O.3       1 <0>        -0.3874
      9 C6          0.2912   -4.1654   -0.8614 C.3       1 <0>         0.0634
     10 C7         -0.1026   -2.7125   -1.1405 C.3       1 <0>         0.0179
     11 N2          0.8141   -0.1263    1.2494 N.am      1 <0>        -0.7323
     12 C8          0.2296   -0.2906    2.4527 C.2       1 <0>         0.7013
     13 O2         -0.9821   -0.2599    2.5492 O.2       1 <0>        -0.5967
     14 N3          0.9881   -0.4890    3.5489 N.am      1 <0>        -0.7448
     15 C9          0.3528   -0.6676    4.8568 C.3       1 <0>         0.1604
     16 C10         1.4303   -0.8734    5.9234 C.3       1 <0>        -0.1945
     17 C11         0.7767   -1.0571    7.2688 C.2       1 <0>         0.4953
     18 O3         -0.4382   -1.0263    7.3656 O.co2     1 <0>        -0.6922
     19 O4          1.4630   -1.2365    8.2605 O.co2     1 <0>        -0.7026
     20 H2          0.6637    2.1161   -0.2223 H         1 <0>         0.0550
     21 H3         -0.8954    1.7460   -0.9972 H         1 <0>         0.0609
     22 H4         -0.8075    1.9606    0.7676 H         1 <0>         0.0665
     23 H5          0.0843   -0.3442   -2.0502 H         1 <0>         0.0514
     24 H6          1.6371    0.1428   -1.3290 H         1 <0>         0.0792
     25 H7          1.8229   -2.1675   -2.9100 H         1 <0>         0.0407
     26 H8          3.0283   -1.6258   -1.7165 H         1 <0>         0.0853
     27 H9          3.2909   -4.0462   -2.2976 H         1 <0>         0.0960
     28 H10         2.9140   -3.8033   -0.5742 H         1 <0>         0.0608
     29 H11        -0.5649   -4.8156   -1.0413 H         1 <0>         0.0981
     30 H12         0.6114   -4.2628    0.1760 H         1 <0>         0.0624
     31 H13        -0.8817   -2.4061   -0.4425 H         1 <0>         0.0903
     32 H14        -0.4734   -2.6258   -2.1619 H         1 <0>         0.0417
     33 H15         1.7807   -0.1508    1.1724 H         1 <0>         0.3932
     34 H16         1.9548   -0.5135    3.4719 H         1 <0>         0.3894
     35 H17        -0.2343    0.2181    5.0996 H         1 <0>         0.0649
     36 H18        -0.3005   -1.5396    4.8273 H         1 <0>         0.0650
     37 H19         2.0174   -1.7591    5.6806 H         1 <0>         0.0623
     38 H20         2.0836   -0.0013    5.9528 H         1 <0>         0.0620
@<TRIPOS>BOND
     1    1    2 1
     2    1   20 1
     3    1   21 1
     4    1   22 1
     5    2    3 1
     6    2    4 1
     7    2   11 1
     8    4    5 1
     9    4   23 1
    10    4   24 1
    11    5   10 1
    12    5    6 1
    13    6    7 1
    14    6   25 1
    15    6   26 1
    16    7    8 1
    17    7   27 1
    18    7   28 1
    19    8    9 1
    20    9   10 1
    21    9   29 1
    22    9   30 1
    23   10   31 1
    24   10   32 1
    25   11   12 am
    26   11   33 1
    27   12   13 2
    28   12   14 am
    29   14   15 1
    30   14   34 1
    31   15   16 1
    32   15   35 1
    33   15   36 1
    34   16   17 1
    35   16   37 1
    36   16   38 1
    37   17   18 2
    38   17   19 1
@<TRIPOS>MOLECULE
ZINC02529768
   22    22     0     0     0
SMALL
USER_CHARGES
6-amino-3-methyl-2-nitro-benzenesulfonic acid
@<TRIPOS>ATOM
      1 C1         -1.5870    1.5504   -2.4962 C.3       1 <0>        -0.1163
      2 C2         -2.0704    2.1042   -1.1807 C.ar      1 <0>        -0.1330
      3 C3         -3.0511    3.0792   -1.1611 C.ar      1 <0>        -0.0346
      4 C4         -3.4923    3.5929    0.0423 C.ar      1 <0>        -0.1896
      5 C5         -2.9538    3.1252    1.2346 C.ar      1 <0>         0.3109
      6 C6         -1.9731    2.1419    1.2115 C.ar      1 <0>        -0.7128
      7 C7         -1.5364    1.6325    0.0042 C.ar      1 <0>         0.1090
      8 N1         -0.4914    0.5847   -0.0213 N.pl3     1 <0>         0.0275
      9 O1         -0.8071   -0.5912    0.0127 O.2       1 <0>        -0.1114
     10 O2          0.6840    0.8982   -0.0815 O.3       1 <0>        -0.1549
     11 S1         -1.2864    1.5456    2.7207 S.o2      1 <0>         2.6821
     12 O3         -2.3076    1.6550    3.7027 O.2       1 <0>        -1.0447
     13 O4         -0.6499    0.3118    2.4176 O.2       1 <0>        -1.0346
     14 N2         -3.3980    3.6422    2.4537 N.pl3     1 <0>        -0.8540
     15 H1         -2.1972    0.6911   -2.7749 H         1 <0>         0.0757
     16 H2         -1.6681    2.3183   -3.2655 H         1 <0>         0.0771
     17 H3         -0.5463    1.2410   -2.3999 H         1 <0>         0.0640
     18 H4         -3.4691    3.4426   -2.0883 H         1 <0>         0.1406
     19 H5         -4.2547    4.3576    0.0567 H         1 <0>         0.1362
     20 H6         -2.9116    3.4463    3.2697 H         1 <0>         0.4208
     21 H7         -4.1929    4.1973    2.4843 H         1 <0>         0.3992
     22 O5         -0.1856    2.5145    3.1280 O.3       1 <0>        -1.0573
@<TRIPOS>BOND
     1    1    2 1
     2    1   15 1
     3    1   16 1
     4    1   17 1
     5    2    7 ar
     6    2    3 ar
     7    3    4 ar
     8    3   18 1
     9    4    5 ar
    10    4   19 1
    11    5    6 ar
    12    5   14 1
    13    6    7 ar
    14    6   11 1
    15    7    8 1
    16    8    9 2
    17    8   10 1
    18   11   12 2
    19   11   13 2
    20   11   22 1
    21   14   20 1
    22   14   21 1
@<TRIPOS>MOLECULE
ZINC37419794
   34    34     0     0     0
SMALL
USER_CHARGES

@<TRIPOS>ATOM
      1 C1         -0.0184    1.5028    0.0103 C.3       1 <0>        -0.1723
      2 C2          0.0021   -0.0041    0.0020 C.2       1 <0>         0.5047
      3 O1          1.0605   -0.5961   -0.0113 O.2       1 <0>        -0.5435
      4 N1         -1.1558   -0.6938    0.0094 N.am      1 <0>        -0.7323
      5 C3         -1.1360   -2.1586    0.0013 C.3       1 <0>         0.1332
      6 C4         -2.5713   -2.6882    0.0122 C.3       1 <0>        -0.1486
      7 C5         -2.5509   -4.1950    0.0039 C.2       1 <0>         0.5192
      8 O2         -1.4925   -4.7871   -0.0094 O.2       1 <0>        -0.5147
      9 N2         -3.7088   -4.8847    0.0112 N.am      1 <0>        -0.7048
     10 C6         -3.6889   -6.3496    0.0032 C.3       1 <0>         0.1018
     11 C7         -3.0078   -6.8759    1.2834 C.3       1 <0>        -0.1079
     12 C8         -4.1846   -7.1668    2.2476 C.3       1 <0>        -0.1230
     13 C9         -5.2700   -7.7357    1.3004 C.3       1 <0>        -0.1178
     14 C10        -5.1272   -6.8963    0.0140 C.3       1 <0>        -0.1062
     15 C11        -2.9560   -6.8488   -1.2153 C.2       1 <0>         0.5030
     16 O3         -2.4988   -6.0548   -2.0196 O.co2     1 <0>        -0.6764
     17 O4         -2.8203   -8.0468   -1.3967 O.co2     1 <0>        -0.6993
     18 H1          1.0042    1.8801    0.0026 H         1 <0>         0.0900
     19 H2         -0.5455    1.8639   -0.8728 H         1 <0>         0.0863
     20 H3         -0.5286    1.8543    0.9071 H         1 <0>         0.0855
     21 H4         -2.0023   -0.2203    0.0200 H         1 <0>         0.3978
     22 H5         -0.6258   -2.5101   -0.8955 H         1 <0>         0.0801
     23 H6         -0.6088   -2.5197    0.8844 H         1 <0>         0.0748
     24 H7         -3.0815   -2.3367    0.9090 H         1 <0>         0.0880
     25 H8         -3.0985   -2.3271   -0.8709 H         1 <0>         0.0928
     26 H9         -4.5553   -4.4112    0.0219 H         1 <0>         0.3827
     27 H10        -2.4529   -7.7899    1.0720 H         1 <0>         0.0762
     28 H11        -2.3484   -6.1168    1.7043 H         1 <0>         0.0628
     29 H12        -3.8977   -7.9066    2.9950 H         1 <0>         0.0587
     30 H13        -4.5298   -6.2490    2.7236 H         1 <0>         0.0566
     31 H14        -5.0804   -8.7887    1.0918 H         1 <0>         0.0678
     32 H15        -6.2614   -7.6042    1.7337 H         1 <0>         0.0566
     33 H16        -5.8400   -6.0717    0.0252 H         1 <0>         0.0548
     34 H17        -5.2949   -7.5234   -0.8616 H         1 <0>         0.0735
@<TRIPOS>BOND
     1    1    2 1
     2    1   18 1
     3    1   19 1
     4    1   20 1
     5    2    3 2
     6    2    4 am
     7    4    5 1
     8    4   21 1
     9    5    6 1
    10    5   22 1
    11    5   23 1
    12    6    7 1
    13    6   24 1
    14    6   25 1
    15    7    8 2
    16    7    9 am
    17    9   10 1
    18    9   26 1
    19   10   14 1
    20   10   11 1
    21   10   15 1
    22   11   12 1
    23   11   27 1
    24   11   28 1
    25   12   13 1
    26   12   29 1
    27   12   30 1
    28   13   14 1
    29   13   31 1
    30   13   32 1
    31   14   33 1
    32   14   34 1
    33   15   16 2
    34   15   17 1
@<TRIPOS>MOLECULE
ZINC40577731
   34    34     0     0     0
SMALL
USER_CHARGES

@<TRIPOS>ATOM
      1 C1          0.0054    1.5272   -0.0035 C.3       1 <0>        -0.1382
      2 C2          0.0111   -0.0028   -0.0036 C.3       1 <0>         0.1320
      3 H1         -1.0097   -0.3737    0.0894 H         1 <0>         0.0726
      4 C3          0.6302   -0.5167   -1.3085 C.3       1 <0>         0.0487
      5 O1          0.8017   -1.9333   -1.2221 O.3       1 <0>        -0.3824
      6 C4          1.6993   -2.3525   -0.1913 C.3       1 <0>         0.0459
      7 C5          1.1349   -1.9326    1.1707 C.3       1 <0>         0.0808
      8 N1          0.8218   -0.4955    1.1212 N.am      1 <0>        -0.6372
      9 C6          1.2653    0.3447    2.0772 C.2       1 <0>         0.7101
     10 O2          0.9129    1.5084    2.0750 O.2       1 <0>        -0.5755
     11 N2          2.0995   -0.1050    3.0355 N.am      1 <0>        -0.7109
     12 C7          2.4919    0.7766    4.1378 C.3       1 <0>         0.0597
     13 H2          1.6556    1.4247    4.4000 H         1 <0>         0.0868
     14 C8          2.8828   -0.0682    5.3521 C.3       1 <0>         0.1081
     15 H3          3.0891    0.5864    6.1988 H         1 <0>         0.1082
     16 C9          1.7335   -1.0139    5.7067 C.3       1 <0>        -0.1781
     17 O3          4.0507   -0.8321    5.0448 O.3       1 <0>        -0.5470
     18 C10         3.6667    1.6195    3.7131 C.2       1 <0>         0.5018
     19 O4          3.8190    2.7340    4.1834 O.co2     1 <0>        -0.6983
     20 O5          4.4648    1.1870    2.8992 O.co2     1 <0>        -0.6849
     21 H4          1.0305    1.8943    0.0458 H         1 <0>         0.0694
     22 H5         -0.4666    1.8888   -0.9170 H         1 <0>         0.0425
     23 H6         -0.5519    1.8884    0.8609 H         1 <0>         0.0839
     24 H7         -0.0303   -0.2801   -2.1427 H         1 <0>         0.1034
     25 H8          1.5987   -0.0414   -1.4638 H         1 <0>         0.0583
     26 H9          1.8080   -3.4366   -0.2219 H         1 <0>         0.1039
     27 H10         2.6717   -1.8839   -0.3426 H         1 <0>         0.0599
     28 H11         0.2276   -2.4983    1.3823 H         1 <0>         0.0730
     29 H12         1.8751   -2.1205    1.9485 H         1 <0>         0.0846
     30 H13         2.4401   -1.0123    2.9953 H         1 <0>         0.3805
     31 H14         1.5272   -1.6685    4.8599 H         1 <0>         0.0522
     32 H15         2.0120   -1.6157    6.5718 H         1 <0>         0.0594
     33 H16         0.8426   -0.4312    5.9410 H         1 <0>         0.0636
     34 H17         3.9395   -1.4381    4.2995 H         1 <0>         0.3634
@<TRIPOS>BOND
     1    1    2 1
     2    1   21 1
     3    1   22 1
     4    1   23 1
     5    2    3 1
     6    2    8 1
     7    2    4 1
     8    4    5 1
     9    4   24 1
    10    4   25 1
    11    5    6 1
    12    6    7 1
    13    6   26 1
    14    6   27 1
    15    7    8 1
    16    7   28 1
    17    7   29 1
    18    8    9 am
    19    9   10 2
    20    9   11 am
    21   11   12 1
    22   11   30 1
    23   12   13 1
    24   12   14 1
    25   12   18 1
    26   14   15 1
    27   14   16 1
    28   14   17 1
    29   16   31 1
    30   16   32 1
    31   16   33 1
    32   17   34 1
    33   18   19 2
    34   18   20 1
@<TRIPOS>MOLECULE
ZINC45139288
   34    35     0     0     0
SMALL
USER_CHARGES

@<TRIPOS>ATOM
      1 C1         -0.0187    1.5258    0.0104 C.3       1 <0>        -0.1152
      2 C2          0.0021   -0.0041    0.0020 C.3       1 <0>        -0.1451
      3 C3         -0.8252   -0.7277    1.0664 C.3       1 <0>        -0.1920
      4 C4          0.7014   -0.7075    1.1670 C.3       1 <0>         0.1213
      5 H1          1.2323   -1.6343    0.9496 H         1 <0>         0.1366
      6 N1          1.2998    0.1353    2.2051 N.am      1 <0>        -0.7212
      7 C5          2.3200   -0.3349    2.9498 C.2       1 <0>         0.7338
      8 O1          2.7437   -1.4587    2.7600 O.2       1 <0>        -0.5701
      9 N2          2.8706    0.4404    3.9048 N.am      1 <0>        -0.6038
     10 C6          2.4528    1.8130    4.2437 C.3       1 <0>         0.0737
     11 C7          2.9070    2.0149    5.7109 C.3       1 <0>         0.0893
     12 H2          2.1943    1.5698    6.4053 H         1 <0>         0.0721
     13 C8          4.2546    1.2462    5.7284 C.3       1 <0>        -0.0962
     14 C9          3.9830    0.0552    4.7854 C.3       1 <0>         0.0844
     15 H3          3.7081   -0.8250    5.3666 H         1 <0>         0.0706
     16 C10         5.2118   -0.2339    3.9623 C.2       1 <0>         0.4967
     17 O2          5.2197    0.0181    2.7694 O.co2     1 <0>        -0.6749
     18 O3          6.1981   -0.7198    4.4892 O.co2     1 <0>        -0.7006
     19 O4          3.1030    3.4005    6.0004 O.3       1 <0>        -0.5545
     20 C11         0.1021   -0.6551   -1.3790 C.3       1 <0>        -0.1125
     21 H4          1.0039    1.9031    0.0027 H         1 <0>         0.0629
     22 H5         -0.5459    1.8868   -0.8726 H         1 <0>         0.0603
     23 H6         -0.5289    1.8773    0.9072 H         1 <0>         0.0527
     24 H7         -1.3842   -0.1138    1.7726 H         1 <0>         0.0919
     25 H8         -1.2985   -1.6677    0.7829 H         1 <0>         0.0985
     26 H9          0.9618    1.0318    2.3565 H         1 <0>         0.3892
     27 H10         2.9476    2.5323    3.5911 H         1 <0>         0.0714
     28 H11         1.3700    1.9104    4.1650 H         1 <0>         0.0626
     29 H12         5.0603    1.8715    5.3437 H         1 <0>         0.0832
     30 H13         4.4848    0.8942    6.7340 H         1 <0>         0.0828
     31 H14         2.3052    3.9387    5.9061 H         1 <0>         0.3733
     32 H15         1.1494   -0.7246   -1.6729 H         1 <0>         0.0625
     33 H16        -0.3320   -1.6542   -1.3419 H         1 <0>         0.0575
     34 H17        -0.4399   -0.0502   -2.1059 H         1 <0>         0.0586
@<TRIPOS>BOND
     1    1    2 1
     2    1   21 1
     3    1   22 1
     4    1   23 1
     5    2    4 1
     6    2    3 1
     7    2   20 1
     8    3    4 1
     9    3   24 1
    10    3   25 1
    11    4    5 1
    12    4    6 1
    13    6    7 am
    14    6   26 1
    15    7    8 2
    16    7    9 am
    17    9   14 1
    18    9   10 1
    19   10   11 1
    20   10   27 1
    21   10   28 1
    22   11   12 1
    23   11   13 1
    24   11   19 1
    25   13   14 1
    26   13   29 1
    27   13   30 1
    28   14   15 1
    29   14   16 1
    30   16   17 2
    31   16   18 1
    32   19   31 1
    33   20   32 1
    34   20   33 1
    35   20   34 1
@<TRIPOS>MOLECULE
ZINC52212994
   31    32     0     0     0
SMALL
USER_CHARGES

@<TRIPOS>ATOM
      1 C1         -0.0188    1.5336    0.0105 C.3       1 <0>        -0.1384
      2 C2          1.5179    1.4762   -0.0045 C.3       1 <0>        -0.1486
      3 C3          1.3941    0.0896    0.6488 C.3       1 <0>         0.1468
      4 C4          0.0021   -0.0041    0.0020 C.3       1 <0>        -0.1561
      5 N1          2.3499   -0.8915    0.1290 N.am      1 <0>        -0.7425
      6 C5          2.7203   -1.9402    0.8903 C.2       1 <0>         0.7303
      7 O1          2.2612   -2.0721    2.0084 O.2       1 <0>        -0.5683
      8 N2          3.5996   -2.8428    0.4121 N.am      1 <0>        -0.6069
      9 C6          4.2362   -2.8015   -0.9170 C.3       1 <0>         0.0744
     10 C7          4.6200   -4.2716   -1.2187 C.3       1 <0>         0.0884
     11 H1          3.7612   -4.8316   -1.5889 H         1 <0>         0.0714
     12 C8          5.0497   -4.7756    0.1844 C.3       1 <0>        -0.0953
     13 C9          4.0878   -4.0281    1.1320 C.3       1 <0>         0.0844
     14 H2          3.2499   -4.6748    1.3923 H         1 <0>         0.0690
     15 C10         4.8192   -3.6048    2.3797 C.2       1 <0>         0.4943
     16 O2          4.9048   -2.4225    2.6647 O.co2     1 <0>        -0.6710
     17 O3          5.3254   -4.4447    3.1042 O.co2     1 <0>        -0.7024
     18 O4          5.7080   -4.3376   -2.1429 O.3       1 <0>        -0.5549
     19 H3         -0.4309    1.9596    0.9252 H         1 <0>         0.0821
     20 H4         -0.4483    1.9694   -0.8916 H         1 <0>         0.0687
     21 H5          1.9441    1.4499   -1.0074 H         1 <0>         0.0811
     22 H6          1.9889    2.2208    0.6373 H         1 <0>         0.0727
     23 H7          1.3682    0.1209    1.7381 H         1 <0>         0.1142
     24 H8         -0.7506   -0.4545    0.6490 H         1 <0>         0.0692
     25 H9          0.0139   -0.4351   -0.9991 H         1 <0>         0.0792
     26 H10         2.7162   -0.7863   -0.7630 H         1 <0>         0.3874
     27 H11         3.5326   -2.4323   -1.6633 H         1 <0>         0.0633
     28 H12         5.1273   -2.1743   -0.8915 H         1 <0>         0.0694
     29 H13         4.9136   -5.8541    0.2651 H         1 <0>         0.0820
     30 H14         6.0832   -4.4995    0.3935 H         1 <0>         0.0830
     31 H15         5.5161   -3.9441   -3.0051 H         1 <0>         0.3730
@<TRIPOS>BOND
     1    1    4 1
     2    1    2 1
     3    1   19 1
     4    1   20 1
     5    2    3 1
     6    2   21 1
     7    2   22 1
     8    3    4 1
     9    3    5 1
    10    3   23 1
    11    4   24 1
    12    4   25 1
    13    5    6 am
    14    5   26 1
    15    6    7 2
    16    6    8 am
    17    8   13 1
    18    8    9 1
    19    9   10 1
    20    9   27 1
    21    9   28 1
    22   10   11 1
    23   10   12 1
    24   10   18 1
    25   12   13 1
    26   12   29 1
    27   12   30 1
    28   13   14 1
    29   13   15 1
    30   15   16 2
    31   15   17 1
    32   18   31 1
@<TRIPOS>MOLECULE
ZINC03142474
   27    28     0     0     0
SMALL
USER_CHARGES
2-(2-hydroxy-5-nitro-phenyl)thiazolidine-4-carboxylic acid
@<TRIPOS>ATOM
      1 C1         -5.1548    4.9079   -1.9016 C.ar      1 <0>        -0.0061
      2 C2         -5.2947    3.6385   -2.4288 C.ar      1 <0>        -0.2248
      3 C3         -4.4765    2.6102   -1.9846 C.ar      1 <0>         0.3273
      4 C4         -3.5261    2.8573   -1.0043 C.ar      1 <0>        -0.2622
      5 C5         -3.3902    4.1281   -0.4805 C.ar      1 <0>         0.0118
      6 C6         -4.2039    5.1526   -0.9285 C.ar      1 <0>        -0.1613
      7 N1         -4.0561    6.5134   -0.3655 N.pl3     1 <0>         0.0615
      8 O1         -3.2184    6.7302    0.4916 O.2       1 <0>        -0.2137
      9 O2         -4.7723    7.4164   -0.7593 O.3       1 <0>        -0.2024
     10 C7         -2.6386    1.7415   -0.5160 C.3       1 <0>         0.1742
     11 H1         -3.1338    0.7759   -0.6182 H         1 <0>         0.1672
     12 C8         -0.8292    1.6306    1.2055 C.3       1 <0>        -0.0336
     13 H2         -0.3299    2.5206    1.5884 H         1 <0>         0.1450
     14 C9         -0.0127    1.0858    0.0080 C.3       1 <0>        -0.0509
     15 S1         -1.0144    1.7513   -1.3955 S.3       1 <0>        -0.2241
     16 C10        -0.8359    0.5881    2.2937 C.2       1 <0>         0.4606
     17 O3         -1.7969   -0.1303    2.4361 O.co2     1 <0>        -0.6060
     18 H3         -5.7891    5.7097   -2.2499 H         1 <0>         0.1359
     19 H4         -6.0378    3.4478   -3.1890 H         1 <0>         0.1335
     20 H5         -2.6475    4.3219    0.2793 H         1 <0>         0.1237
     21 H6          0.0021   -0.0041    0.0020 H         1 <0>         0.1157
     22 H7          0.9985    1.4926    0.0005 H         1 <0>         0.1423
     23 N2         -2.2402    1.9936    0.9184 N.4       1 <0>        -0.5205
     24 H8         -2.8506    1.4384    1.5294 H         1 <0>         0.4351
     25 H9         -2.3682    2.9917    1.1224 H         1 <0>         0.4188
     26 O4          0.2256    0.4576    3.1048 O.co2     1 <0>        -0.7013
     27 O5         -4.6086    1.3619   -2.5052 O.3       1 <0>        -0.6456
@<TRIPOS>BOND
     1    1    6 ar
     2    1    2 ar
     3    1   18 1
     4    2    3 ar
     5    2   19 1
     6    3    4 ar
     7    3   27 1
     8    4    5 ar
     9    4   10 1
    10    5    6 ar
    11    5   20 1
    12    6    7 1
    13    7    8 2
    14    7    9 1
    15   10   11 1
    16   10   15 1
    17   10   23 1
    18   12   13 1
    19   12   14 1
    20   12   16 1
    21   12   23 1
    22   14   15 1
    23   14   21 1
    24   14   22 1
    25   16   17 2
    26   16   26 1
    27   23   24 1
    28   23   25 1
@<TRIPOS>MOLECULE
ZINC35764717
   23    24     0     0     0
SMALL
USER_CHARGES

@<TRIPOS>ATOM
      1 C1         -0.0184    1.5028    0.0103 C.3       1 <0>        -0.1110
      2 C2          0.0021   -0.0041    0.0020 C.2       1 <0>         0.2075
      3 C3         -1.1286   -0.7158    0.0039 C.2       1 <0>        -0.7106
      4 S1         -0.5085   -2.3876   -0.0083 S.3       1 <0>         0.1281
      5 C4          1.1381   -2.0479   -0.0148 C.2       1 <0>         0.4489
      6 O1          2.0718   -2.8304   -0.0240 O.2       1 <0>        -0.4809
      7 N1          1.1756   -0.6990   -0.0134 N.am      1 <0>        -0.6562
      8 H1          2.0248   -0.2304   -0.0197 H         1 <0>         0.4077
      9 S2         -2.7972   -0.1500    0.0162 S.o2      1 <0>         2.6304
     10 O2         -3.4920   -0.9551    0.9588 O.2       1 <0>        -1.0268
     11 O3         -2.7450    1.2665    0.1160 O.2       1 <0>        -1.0282
     12 N2         -3.4427   -0.4964   -1.4690 N.2       1 <0>        -1.0779
     13 C5         -4.7787   -0.1549   -1.7529 C.2       1 <0>         0.1288
     14 C6         -5.4312   -0.3845   -2.9205 C.2       1 <0>        -0.0578
     15 N3         -6.6965    0.0941   -2.7841 N.pl3     1 <0>        -0.4950
     16 H2         -7.3927    0.0685   -3.4591 H         1 <0>         0.4267
     17 N4         -6.8164    0.6305   -1.4957 N.2       1 <0>        -0.2972
     18 C7         -5.6731    0.4774   -0.8775 C.2       1 <0>        -0.0452
     19 H3          1.0042    1.8801    0.0026 H         1 <0>         0.0699
     20 H4         -0.5455    1.8639   -0.8728 H         1 <0>         0.1110
     21 H5         -0.5286    1.8543    0.9071 H         1 <0>         0.1071
     22 H6         -5.0201   -0.8606   -3.7984 H         1 <0>         0.1612
     23 H7         -5.4550    0.7874    0.1338 H         1 <0>         0.1596
@<TRIPOS>BOND
     1    1    2 1
     2    1   19 1
     3    1   20 1
     4    1   21 1
     5    2    7 1
     6    2    3 2
     7    3    4 1
     8    3    9 1
     9    4    5 1
    10    5    6 2
    11    5    7 am
    12    7    8 1
    13    9   10 2
    14    9   11 2
    15    9   12 1
    16   12   13 1
    17   13   18 1
    18   13   14 2
    19   14   15 1
    20   14   22 1
    21   15   16 1
    22   15   17 1
    23   17   18 2
    24   18   23 1
@<TRIPOS>MOLECULE
ZINC37652431
   40    40     0     0     0
SMALL
USER_CHARGES

@<TRIPOS>ATOM
      1 C1         -0.6983    2.1499   -0.5769 C.3       1 <0>         0.0865
      2 N1         -1.6092    1.9338   -1.7038 N.am      1 <0>        -0.6089
      3 C2         -2.8183    2.7505   -1.8354 C.3       1 <0>         0.0957
      4 C3         -2.5076    3.9804   -2.6489 C.2       1 <0>         0.5002
      5 O1         -1.3866    4.1574   -3.0766 O.2       1 <0>        -0.5322
      6 N2         -3.4755    4.8838   -2.9011 N.am      1 <0>        -0.8592
      7 C4         -1.3348    0.9836   -2.6194 C.2       1 <0>         0.5303
      8 O2         -2.0889    0.8048   -3.5524 O.2       1 <0>        -0.5344
      9 C5         -0.0911    0.1435   -2.4841 C.3       1 <0>        -0.1368
     10 C6         -0.0967   -0.9518   -3.5523 C.3       1 <0>        -0.0066
     11 C7          1.1214   -1.8575   -3.3605 C.3       1 <0>        -0.1181
     12 C8          2.3998   -1.0268   -3.4887 C.3       1 <0>        -0.1176
     13 C9          2.4544   -0.3857   -4.8769 C.3       1 <0>        -0.1168
     14 C10         1.2363    0.5200   -5.0686 C.3       1 <0>        -0.1170
     15 C11        -0.0422   -0.3108   -4.9404 C.3       1 <0>        -0.1222
     16 C12        -1.3751   -1.7826   -3.4241 C.3       1 <0>        -0.1883
     17 C13        -1.4718   -2.3438   -2.0288 C.2       1 <0>         0.4941
     18 O3         -0.5460   -2.2003   -1.2486 O.co2     1 <0>        -0.6928
     19 O4         -2.4757   -2.9413   -1.6803 O.co2     1 <0>        -0.7087
     20 H1         -0.9970    1.5164    0.2583 H         1 <0>         0.0603
     21 H2          0.3185    1.8983   -0.8782 H         1 <0>         0.0754
     22 H3         -0.7388    3.1957   -0.2724 H         1 <0>         0.0625
     23 H4         -3.5953    2.1715   -2.3345 H         1 <0>         0.1136
     24 H5         -3.1656    3.0475   -0.8458 H         1 <0>         0.1037
     25 H6         -4.3721    4.7423   -2.5590 H         1 <0>         0.4005
     26 H7         -3.2755    5.6755   -3.4247 H         1 <0>         0.3982
     27 H8          0.7889    0.7735   -2.6143 H         1 <0>         0.0796
     28 H9         -0.0673   -0.3137   -1.4949 H         1 <0>         0.1325
     29 H10         1.0825   -2.3142   -2.3716 H         1 <0>         0.1047
     30 H11         1.1173   -2.6379   -4.1216 H         1 <0>         0.0436
     31 H12         2.4039   -0.2464   -2.7277 H         1 <0>         0.0583
     32 H13         3.2676   -1.6720   -3.3521 H         1 <0>         0.0509
     33 H14         3.3652    0.2061   -4.9682 H         1 <0>         0.0486
     34 H15         2.4503   -1.1660   -5.6379 H         1 <0>         0.0547
     35 H16         1.2403    1.3003   -4.3076 H         1 <0>         0.0570
     36 H17         1.2751    0.9767   -6.0576 H         1 <0>         0.0483
     37 H18        -0.0462   -1.0911   -5.7014 H         1 <0>         0.0482
     38 H19        -0.9100    0.3345   -5.0770 H         1 <0>         0.0813
     39 H20        -2.2407   -1.1504   -3.6222 H         1 <0>         0.0823
     40 H21        -1.3505   -2.6007   -4.1439 H         1 <0>         0.0485
@<TRIPOS>BOND
     1    1    2 1
     2    1   20 1
     3    1   21 1
     4    1   22 1
     5    2    3 1
     6    2    7 am
     7    3    4 1
     8    3   23 1
     9    3   24 1
    10    4    5 2
    11    4    6 am
    12    6   25 1
    13    6   26 1
    14    7    8 2
    15    7    9 1
    16    9   10 1
    17    9   27 1
    18    9   28 1
    19   10   15 1
    20   10   11 1
    21   10   16 1
    22   11   12 1
    23   11   29 1
    24   11   30 1
    25   12   13 1
    26   12   31 1
    27   12   32 1
    28   13   14 1
    29   13   33 1
    30   13   34 1
    31   14   15 1
    32   14   35 1
    33   14   36 1
    34   15   37 1
    35   15   38 1
    36   16   17 1
    37   16   39 1
    38   16   40 1
    39   17   18 2
    40   17   19 1
@<TRIPOS>MOLECULE
ZINC41115201
   30    31     0     0     0
SMALL
USER_CHARGES

@<TRIPOS>ATOM
      1 C1         -0.0201    1.5075    0.0084 C.3       1 <0>        -0.1007
      2 C2          0.0011    0.0007    0.0021 C.2       1 <0>         0.1353
      3 C3          0.0079   -0.8120   -1.1142 C.2       1 <0>        -0.2828
      4 C4          0.0295   -2.1488   -0.6567 C.2       1 <0>         0.1194
      5 N1          0.0351   -2.1289    0.6476 N.2       1 <0>        -0.2960
      6 N2          0.0228   -0.7983    1.0808 N.pl3     1 <0>        -0.4635
      7 H1          0.0273   -0.5031    2.0048 H         1 <0>         0.4412
      8 C5          0.0435   -3.3814   -1.5236 C.3       1 <0>        -0.0796
      9 C6         -0.0055   -0.3683   -2.5195 C.2       1 <0>         0.5839
     10 O1          1.0419   -0.1696   -3.1043 O.2       1 <0>        -0.4604
     11 N3         -1.1786   -0.1828   -3.1565 N.am      1 <0>        -0.6525
     12 C7         -1.1949    0.3354   -4.4439 C.ar      1 <0>         0.3361
     13 C8         -2.4148    0.6226   -5.0529 C.ar      1 <0>        -0.2189
     14 C9         -2.4280    1.1340   -6.3224 C.ar      1 <0>        -0.0209
     15 C10        -1.2004    1.3519   -6.9692 C.ar      1 <0>        -0.2074
     16 C11        -0.0156    1.0405   -6.2970 C.ar      1 <0>         0.1545
     17 N4         -0.0493    0.5549   -5.0741 N.ar      1 <0>        -0.4863
     18 C12        -1.1626    1.8998   -8.3353 C.2       1 <0>         0.5267
     19 O2         -2.2054    2.1689   -8.9155 O.co2     1 <0>        -0.6881
     20 O3         -0.0883    2.0860   -8.8901 O.co2     1 <0>        -0.6844
     21 H2          1.0023    1.8853    0.0005 H         1 <0>         0.0905
     22 H3         -0.5472    1.8671   -0.8753 H         1 <0>         0.0898
     23 H4         -0.5307    1.8599    0.9046 H         1 <0>         0.0783
     24 H5          1.0744   -3.6635   -1.7373 H         1 <0>         0.0845
     25 H6         -0.4561   -4.1979   -1.0023 H         1 <0>         0.0788
     26 H7         -0.4777   -3.1742   -2.4582 H         1 <0>         0.0791
     27 H8         -2.0116   -0.4114   -2.7152 H         1 <0>         0.4126
     28 H9         -3.3415    0.4430   -4.5282 H         1 <0>         0.1261
     29 H10        -3.3608    1.3643   -6.8156 H         1 <0>         0.1395
     30 H11         0.9350    1.2029   -6.7832 H         1 <0>         0.1650
@<TRIPOS>BOND
     1    1    2 1
     2    1   21 1
     3    1   22 1
     4    1   23 1
     5    2    6 1
     6    2    3 2
     7    3    4 1
     8    3    9 1
     9    4    5 2
    10    4    8 1
    11    5    6 1
    12    6    7 1
    13    8   24 1
    14    8   25 1
    15    8   26 1
    16    9   10 2
    17    9   11 am
    18   11   12 1
    19   11   27 1
    20   12   17 ar
    21   12   13 ar
    22   13   14 ar
    23   13   28 1
    24   14   15 ar
    25   14   29 1
    26   15   16 ar
    27   15   18 1
    28   16   17 ar
    29   16   30 1
    30   18   19 2
    31   18   20 1
@<TRIPOS>MOLECULE
ZINC49540197
   41    42     0     0     0
SMALL
USER_CHARGES

@<TRIPOS>ATOM
      1 C1         -4.2678    0.8054   -1.4978 C.3       1 <0>        -0.0787
      2 C2         -3.5234    0.7268   -0.1899 C.2       1 <0>         0.0597
      3 C3         -2.3299    1.3496   -0.0139 C.2       1 <0>        -0.2409
      4 S1         -1.9702    0.8998    1.6763 S.3       1 <0>         0.1269
      5 C4         -3.3518   -0.0152    1.9709 C.2       1 <0>         0.0469
      6 N1         -4.0037    0.0548    0.8372 N.2       1 <0>        -0.5031
      7 C5         -3.7458   -0.7356    3.2346 C.3       1 <0>         0.2352
      8 N2         -3.2169   -2.1014    3.2033 N.am      1 <0>        -0.7542
      9 C6         -3.4462   -2.9367    4.2359 C.2       1 <0>         0.7218
     10 O1         -4.0921   -2.5566    5.1934 O.2       1 <0>        -0.5632
     11 N3         -2.9596   -4.1932    4.2071 N.am      1 <0>        -0.7119
     12 C7         -3.2090   -5.1011    5.3295 C.3       1 <0>         0.1307
     13 C8         -2.5328   -6.4463    5.0572 C.3       1 <0>        -0.1054
     14 C9         -3.1032   -7.0533    3.7738 C.3       1 <0>        -0.1190
     15 C10        -4.6101   -7.2633    3.9348 C.3       1 <0>        -0.1099
     16 C11        -5.2863   -5.9181    4.2071 C.3       1 <0>        -0.0877
     17 H1         -6.3598   -6.0678    4.3218 H         1 <0>         0.0576
     18 C12        -4.7159   -5.3112    5.4905 C.3       1 <0>        -0.1077
     19 C13        -5.0259   -4.9699    3.0349 C.3       1 <0>        -0.1466
     20 C14        -2.6472   -4.5033    6.5936 C.2       1 <0>         0.5006
     21 O2         -2.0902   -3.4193    6.5601 O.co2     1 <0>        -0.6741
     22 O3         -2.7497   -5.1036    7.6498 O.co2     1 <0>        -0.7036
     23 H2         -4.9321    1.6696   -1.4864 H         1 <0>         0.0732
     24 H3         -3.5549    0.9059   -2.3162 H         1 <0>         0.0728
     25 H4         -4.8550   -0.1023   -1.6368 H         1 <0>         0.0742
     26 H5         -1.7570    1.9504   -0.7046 H         1 <0>         0.1942
     27 H6         -3.3374   -0.2074    4.0963 H         1 <0>         0.0925
     28 H7         -4.8326   -0.7685    3.3103 H         1 <0>         0.0944
     29 H8         -2.7016   -2.4046    2.4395 H         1 <0>         0.3881
     30 H9         -2.4444   -4.4964    3.4433 H         1 <0>         0.3790
     31 H10        -1.4592   -6.2967    4.9425 H         1 <0>         0.0573
     32 H11        -2.7183   -7.1219    5.8923 H         1 <0>         0.0805
     33 H12        -2.9177   -6.3778    2.9387 H         1 <0>         0.0579
     34 H13        -2.6214   -8.0117    3.5798 H         1 <0>         0.0555
     35 H14        -5.0164   -7.6958    3.0205 H         1 <0>         0.0519
     36 H15        -4.7956   -7.9389    4.7699 H         1 <0>         0.0597
     37 H16        -4.9014   -5.9867    6.3256 H         1 <0>         0.0666
     38 H17        -5.1976   -4.3528    5.6845 H         1 <0>         0.0771
     39 H18        -5.6086   -5.2909    2.1715 H         1 <0>         0.0307
     40 H19        -5.3182   -3.9577    3.3146 H         1 <0>         0.0517
     41 H20        -3.9654   -4.9855    2.7836 H         1 <0>         0.0694
@<TRIPOS>BOND
     1    1    2 1
     2    1   23 1
     3    1   24 1
     4    1   25 1
     5    2    6 1
     6    2    3 2
     7    3    4 1
     8    3   26 1
     9    4    5 1
    10    5    6 2
    11    5    7 1
    12    7    8 1
    13    7   27 1
    14    7   28 1
    15    8    9 am
    16    8   29 1
    17    9   10 2
    18    9   11 am
    19   11   12 1
    20   11   30 1
    21   12   18 1
    22   12   13 1
    23   12   20 1
    24   13   14 1
    25   13   31 1
    26   13   32 1
    27   14   15 1
    28   14   33 1
    29   14   34 1
    30   15   16 1
    31   15   35 1
    32   15   36 1
    33   16   17 1
    34   16   18 1
    35   16   19 1
    36   18   37 1
    37   18   38 1
    38   19   39 1
    39   19   40 1
    40   19   41 1
    41   20   21 2
    42   20   22 1
@<TRIPOS>MOLECULE
ZINC05434222
   50    52     0     0     0
SMALL
USER_CHARGES
2-[1-[(8-allyl-7,9-dioxo-3,6,8-triazabicyclo[4.3.0]non-3-yl)carbonylmethyl]cyclopentyl]acetic acid
@<TRIPOS>ATOM
      1 C1         -2.2766    5.3051    8.8189 C.2       1 <0>        -0.1613
      2 C2         -1.3376    4.5900    8.2506 C.2       1 <0>        -0.1818
      3 C3         -1.6458    3.2018    7.7514 C.3       1 <0>         0.1492
      4 N1         -1.2822    3.1000    6.3359 N.am      1 <0>        -0.5772
      5 C4         -2.1207    3.3790    5.3155 C.2       1 <0>         0.5328
      6 O1         -3.2839    3.7115    5.3934 O.2       1 <0>        -0.4604
      7 C5         -1.3067    3.1897    4.0548 C.3       1 <0>         0.0715
      8 H1         -1.1518    4.1326    3.5304 H         1 <0>         0.1395
      9 C6         -1.9419    2.1265    3.1583 C.3       1 <0>         0.1235
     10 N2         -0.9119    1.6251    2.2353 N.am      1 <0>        -0.6217
     11 C7          0.3264    1.0438    2.7685 C.3       1 <0>         0.0913
     12 C8          1.0040    2.0694    3.6928 C.3       1 <0>         0.1323
     13 N3         -0.0348    2.6286    4.5618 N.am      1 <0>        -0.6164
     14 C9         -0.0746    2.7188    5.8935 C.2       1 <0>         0.7063
     15 O2          0.8717    2.4837    6.6190 O.2       1 <0>        -0.5427
     16 C10        -1.1022    1.7043    0.9034 C.2       1 <0>         0.5225
     17 O3         -2.1257    2.1848    0.4645 O.2       1 <0>        -0.5234
     18 C11        -0.0433    1.1958   -0.0406 C.3       1 <0>        -0.1333
     19 C12        -0.4412    1.5279   -1.4801 C.3       1 <0>        -0.0207
     20 C13        -1.8004    0.8800   -1.8155 C.3       1 <0>        -0.1060
     21 C14        -1.6541    0.4352   -3.2927 C.3       1 <0>        -0.1269
     22 C15        -0.1867   -0.0562   -3.3588 C.3       1 <0>        -0.1284
     23 C16         0.5844    0.9334   -2.4610 C.3       1 <0>        -0.0952
     24 C17        -0.5240    3.0446   -1.6639 C.3       1 <0>        -0.1527
     25 C18         0.8475    3.6464   -1.4975 C.2       1 <0>         0.4613
     26 O4          1.7796    2.9468   -1.1786 O.co2     1 <0>        -0.6394
     27 H2         -2.0558    6.2999    9.1767 H         1 <0>         0.1039
     28 H3         -3.2716    4.8999    8.9297 H         1 <0>         0.1012
     29 H4         -0.3427    4.9952    8.1399 H         1 <0>         0.1155
     30 H5         -2.7109    3.0018    7.8683 H         1 <0>         0.0984
     31 H6         -1.0741    2.4736    8.3267 H         1 <0>         0.1038
     32 H7         -2.7616    2.5675    2.5911 H         1 <0>         0.1183
     33 H8         -2.3167    1.3074    3.7720 H         1 <0>         0.0753
     34 H9          0.0919    0.1421    3.3342 H         1 <0>         0.0758
     35 H10         0.9960    0.7942    1.9454 H         1 <0>         0.1133
     36 H11         1.7668    1.5774    4.2963 H         1 <0>         0.1093
     37 H12         1.4560    2.8629    3.0976 H         1 <0>         0.0913
     38 H13         0.0534    0.1157    0.0697 H         1 <0>         0.0820
     39 H14         0.9095    1.6714    0.1920 H         1 <0>         0.1253
     40 H15        -1.9807    0.0176   -1.1737 H         1 <0>         0.0513
     41 H16        -2.6055    1.6077   -1.7134 H         1 <0>         0.0732
     42 H17        -1.8100    1.2778   -3.9664 H         1 <0>         0.0630
     43 H18        -2.3441   -0.3769   -3.5220 H         1 <0>         0.0553
     44 H19         0.1848   -0.0117   -4.3825 H         1 <0>         0.0562
     45 H20        -0.1039   -1.0703   -2.9676 H         1 <0>         0.0560
     46 H21         1.0225    1.7252   -3.0686 H         1 <0>         0.0688
     47 H22         1.3661    0.4089   -1.9115 H         1 <0>         0.0618
     48 H23        -0.9010    3.2697   -2.6616 H         1 <0>         0.0601
     49 H24        -1.1981    3.4648   -0.9175 H         1 <0>         0.0771
     50 O5          1.0337    4.9597   -1.7036 O.co2     1 <0>        -0.7785
@<TRIPOS>BOND
     1    1    2 2
     2    1   27 1
     3    1   28 1
     4    2    3 1
     5    2   29 1
     6    3    4 1
     7    3   30 1
     8    3   31 1
     9    4   14 am
    10    4    5 am
    11    5    6 2
    12    5    7 1
    13    7    8 1
    14    7   13 1
    15    7    9 1
    16    9   10 1
    17    9   32 1
    18    9   33 1
    19   10   11 1
    20   10   16 am
    21   11   12 1
    22   11   34 1
    23   11   35 1
    24   12   13 1
    25   12   36 1
    26   12   37 1
    27   13   14 am
    28   14   15 2
    29   16   17 2
    30   16   18 1
    31   18   19 1
    32   18   38 1
    33   18   39 1
    34   19   23 1
    35   19   20 1
    36   19   24 1
    37   20   21 1
    38   20   40 1
    39   20   41 1
    40   21   22 1
    41   21   42 1
    42   21   43 1
    43   22   23 1
    44   22   44 1
    45   22   45 1
    46   23   46 1
    47   23   47 1
    48   24   25 1
    49   24   48 1
    50   24   49 1
    51   25   26 2
    52   25   50 1
@<TRIPOS>MOLECULE
ZINC38030632
   40    41     0     0     0
SMALL
USER_CHARGES

@<TRIPOS>ATOM
      1 C1         -0.0187    1.5258    0.0104 C.3       1 <0>        -0.1436
      2 C2          0.0021   -0.0041    0.0020 C.3       1 <0>        -0.1094
      3 H1          0.5122   -0.3561   -0.8946 H         1 <0>         0.0811
      4 C3         -1.4334   -0.5345    0.0145 C.3       1 <0>        -0.1059
      5 C4         -1.4142   -2.0642   -0.0270 C.3       1 <0>        -0.1341
      6 C5         -0.6916   -2.5957    1.2148 C.3       1 <0>         0.1321
      7 N1          0.6392   -1.9773    1.2884 N.pl3     1 <0>        -0.9898
      8 C6          0.7415   -0.5122    1.2437 C.3       1 <0>         0.1381
      9 S1          1.9986   -2.9138    1.4194 S.o2      1 <0>         2.7067
     10 O1          2.9981   -2.0978    2.0148 O.2       1 <0>        -1.0586
     11 O2          1.5871   -4.1501    1.9863 O.2       1 <0>        -1.0599
     12 N2          2.5139   -3.2467   -0.1188 N.2       1 <0>        -1.0993
     13 C7          3.6634   -4.0342   -0.3212 C.2       1 <0>         0.1483
     14 C8          4.4609   -4.6038    0.6816 C.2       1 <0>        -0.0384
     15 N3          5.4349   -5.2638    0.1086 N.2       1 <0>        -0.2713
     16 N4          5.2950   -5.1399   -1.2796 N.pl3     1 <0>        -0.3917
     17 C9          4.1927   -4.3814   -1.5216 C.2       1 <0>        -0.0716
     18 C10         6.1771   -5.7270   -2.2913 C.3       1 <0>         0.1705
     19 C11         7.5977   -5.2974   -2.0294 C.2       1 <0>         0.4364
     20 O3          7.8476   -4.5749   -1.0937 O.2       1 <0>        -0.4703
     21 O4          8.5853   -5.7173   -2.8356 O.3       1 <0>        -0.3612
     22 C12         9.9076   -5.2712   -2.5282 C.3       1 <0>         0.0358
     23 H2          1.0039    1.9031    0.0027 H         1 <0>         0.0555
     24 H3         -0.5459    1.8868   -0.8726 H         1 <0>         0.0525
     25 H4         -0.5289    1.8773    0.9072 H         1 <0>         0.0512
     26 H5         -1.9355   -0.2021    0.9231 H         1 <0>         0.0561
     27 H6         -1.9686   -0.1542   -0.8556 H         1 <0>         0.0567
     28 H7         -2.4371   -2.4406   -0.0417 H         1 <0>         0.0630
     29 H8         -0.8906   -2.3972   -0.9231 H         1 <0>         0.0728
     30 H9         -1.2630   -2.3406    2.1072 H         1 <0>         0.0518
     31 H10        -0.5879   -3.6783    1.1418 H         1 <0>         0.0845
     32 H11         1.7902   -0.2201    1.1896 H         1 <0>         0.0842
     33 H12         0.2874   -0.0872    2.1389 H         1 <0>         0.0520
     34 H13         4.2990   -4.5133    1.7455 H         1 <0>         0.1591
     35 H14         3.8092   -4.1043   -2.4924 H         1 <0>         0.1597
     36 H15         6.1116   -6.8139   -2.2437 H         1 <0>         0.1127
     37 H16         5.8715   -5.3875   -3.2809 H         1 <0>         0.1288
     38 H17        10.6079   -5.6821   -3.2554 H         1 <0>         0.0988
     39 H18         9.9417   -4.1824   -2.5660 H         1 <0>         0.0580
     40 H19        10.1818   -5.6088   -1.5288 H         1 <0>         0.0585
@<TRIPOS>BOND
     1    1    2 1
     2    1   23 1
     3    1   24 1
     4    1   25 1
     5    2    3 1
     6    2    8 1
     7    2    4 1
     8    4    5 1
     9    4   26 1
    10    4   27 1
    11    5    6 1
    12    5   28 1
    13    5   29 1
    14    6    7 1
    15    6   30 1
    16    6   31 1
    17    7    8 1
    18    7    9 1
    19    8   32 1
    20    8   33 1
    21    9   10 2
    22    9   11 2
    23    9   12 1
    24   12   13 1
    25   13   17 2
    26   13   14 1
    27   14   15 2
    28   14   34 1
    29   15   16 1
    30   16   17 1
    31   16   18 1
    32   17   35 1
    33   18   19 1
    34   18   36 1
    35   18   37 1
    36   19   20 2
    37   19   21 1
    38   21   22 1
    39   22   38 1
    40   22   39 1
    41   22   40 1
@<TRIPOS>MOLECULE
ZINC48647876
   37    39     0     0     0
SMALL
USER_CHARGES

@<TRIPOS>ATOM
      1 C1         -0.0178    1.4608    0.0101 C.3       1 <0>         0.0970
      2 N1          0.0021   -0.0041    0.0020 N.pl3     1 <0>        -0.3758
      3 C2          0.0078   -0.7920   -1.0936 C.2       1 <0>         0.1664
      4 C3          0.0272   -2.0789   -0.6760 C.2       1 <0>        -0.7682
      5 C4          0.0335   -2.0775    0.7227 C.2       1 <0>         0.1326
      6 N2          0.0246   -0.8342    1.1302 N.2       1 <0>        -0.3068
      7 S1          0.0410   -3.5046   -1.7112 S.o2      1 <0>         2.6871
      8 O1         -0.4917   -4.5722   -0.9393 O.2       1 <0>        -1.0050
      9 O2         -0.5215   -3.1090   -2.9547 O.2       1 <0>        -1.0100
     10 N3          1.6266   -3.8796   -2.0070 N.2       1 <0>        -1.0589
     11 C5          1.9248   -4.9022   -2.7538 C.2       1 <0>         0.5217
     12 O3          0.9397   -5.6591   -3.2887 O.3       1 <0>        -0.7055
     13 C6          3.3403   -5.2369   -3.0178 C.ar      1 <0>        -0.0331
     14 C7          3.6613   -6.3316   -3.8245 C.ar      1 <0>        -0.0649
     15 C8          4.9865   -6.6363   -4.0663 C.ar      1 <0>         0.0586
     16 C9          5.9955   -5.8592   -3.5102 C.ar      1 <0>         0.0760
     17 C10         5.6797   -4.7714   -2.7087 C.ar      1 <0>        -0.0511
     18 C11         4.3573   -4.4565   -2.4663 C.ar      1 <0>        -0.0506
     19 Cl1         6.9448   -3.8048   -2.0167 Cl        1 <0>        -0.0618
     20 O4          7.2998   -6.1722   -3.7583 O.3       1 <0>        -0.3095
     21 C12         7.7720   -7.3894   -3.1776 C.3       1 <0>         0.0593
     22 C13         7.4366   -8.5771   -4.0660 C.3       1 <0>        -0.1852
     23 C14         5.9378   -8.8023   -4.1894 C.3       1 <0>         0.0564
     24 O5          5.3132   -7.7022   -4.8540 O.3       1 <0>        -0.3123
     25 H1          1.0048    1.8381    0.0023 H         1 <0>         0.0771
     26 H2         -0.5450    1.8219   -0.8730 H         1 <0>         0.0890
     27 H3         -0.5280    1.8123    0.9069 H         1 <0>         0.0892
     28 H4         -0.0017   -0.4556   -2.1198 H         1 <0>         0.1887
     29 H5          0.0482   -2.9516    1.3568 H         1 <0>         0.1951
     30 H6          2.8776   -6.9363   -4.2563 H         1 <0>         0.1531
     31 H7          4.1098   -3.6077   -1.8460 H         1 <0>         0.1602
     32 H8          8.8530   -7.3304   -3.0505 H         1 <0>         0.1018
     33 H9          7.3040   -7.5271   -2.2029 H         1 <0>         0.0579
     34 H10         7.8506   -8.4031   -5.0592 H         1 <0>         0.0822
     35 H11         7.8949   -9.4726   -3.6463 H         1 <0>         0.0875
     36 H12         5.7577   -9.7143   -4.7584 H         1 <0>         0.1028
     37 H13         5.5081   -8.9107   -3.1936 H         1 <0>         0.0591
@<TRIPOS>BOND
     1    1    2 1
     2    1   25 1
     3    1   26 1
     4    1   27 1
     5    2    6 1
     6    2    3 1
     7    3    4 2
     8    3   28 1
     9    4    5 1
    10    4    7 1
    11    5    6 2
    12    5   29 1
    13    7    8 2
    14    7    9 2
    15    7   10 1
    16   10   11 2
    17   11   12 1
    18   11   13 1
    19   13   18 ar
    20   13   14 ar
    21   14   15 ar
    22   14   30 1
    23   15   24 1
    24   15   16 ar
    25   16   17 ar
    26   16   20 1
    27   17   18 ar
    28   17   19 1
    29   18   31 1
    30   20   21 1
    31   21   22 1
    32   21   32 1
    33   21   33 1
    34   22   23 1
    35   22   34 1
    36   22   35 1
    37   23   24 1
    38   23   36 1
    39   23   37 1
@<TRIPOS>MOLECULE
ZINC38738953
   37    39     0     0     0
SMALL
USER_CHARGES

@<TRIPOS>ATOM
      1 C1         -0.0187    1.5258    0.0104 C.3       1 <0>        -0.1488
      2 C2          0.0021   -0.0041    0.0020 C.3       1 <0>         0.1059
      3 H1         -1.0168   -0.3909    0.0222 H         1 <0>         0.1203
      4 C3          0.7176   -0.5024   -1.2229 C.ar      1 <0>        -0.0555
      5 C4          0.5285   -0.3878   -2.5814 C.ar      1 <0>        -0.0556
      6 N1          1.3768   -0.9728   -3.4100 N.ar      1 <0>        -0.1565
      7 N2          2.3851   -1.6539   -3.0037 N.ar      1 <0>        -0.3207
      8 C5          2.6577   -1.8259   -1.7163 C.ar      1 <0>         0.4127
      9 O1          3.7338   -2.5528   -1.3326 O.3       1 <0>        -0.6253
     10 C6          1.8144   -1.2430   -0.7595 C.ar      1 <0>        -0.2607
     11 C7          1.7875   -1.2102    0.7063 C.2       1 <0>         0.4962
     12 O2          0.7334   -0.4904    1.1325 O.3       1 <0>        -0.2858
     13 N3          2.6692   -1.8014    1.4937 N.2       1 <0>        -0.5643
     14 C8          2.5489   -1.7066    2.8205 C.2       1 <0>         0.4946
     15 O3          1.6291   -1.0769    3.3035 O.2       1 <0>        -0.5187
     16 C9          3.5541   -2.3806    3.7184 C.3       1 <0>        -0.1238
     17 S1          3.1209   -2.0692    5.4521 S.3       1 <0>         0.0897
     18 C10         4.3731   -2.9109    6.3622 C.2       1 <0>         0.0684
     19 N4          5.3772   -3.5906    5.8999 N.2       1 <0>        -0.2500
     20 N5          6.3040   -4.2126    6.7063 N.pl3     1 <0>        -0.6218
     21 C11         6.0809   -4.0555    8.1613 C.3       1 <0>         0.1644
     22 H2          6.9082   -3.5266    8.6347 H         1 <0>         0.1087
     23 S2          4.5597   -3.0201    8.1347 S.3       1 <0>        -0.1690
     24 C12         5.8308   -5.4060    8.8353 C.3       1 <0>        -0.1550
     25 C13        -0.6375    0.3998   -3.1210 C.3       1 <0>        -0.0743
     26 H3          1.0039    1.9031    0.0027 H         1 <0>         0.0652
     27 H4         -0.5459    1.8868   -0.8726 H         1 <0>         0.0837
     28 H5         -0.5289    1.8773    0.9072 H         1 <0>         0.0740
     29 H6          3.5477   -3.4541    3.5294 H         1 <0>         0.1248
     30 H7          4.5479   -1.9818    3.5149 H         1 <0>         0.1250
     31 H8          7.0498   -4.7179    6.3466 H         1 <0>         0.4347
     32 H9          6.6954   -6.0526    8.6853 H         1 <0>         0.0751
     33 H10         5.6708   -5.2553    9.9029 H         1 <0>         0.0772
     34 H11         4.9481   -5.8724    8.3979 H         1 <0>         0.0708
     35 H12        -0.3407    1.4393   -3.2598 H         1 <0>         0.0634
     36 H13        -0.9481   -0.0203   -4.0776 H         1 <0>         0.0706
     37 H14        -1.4671    0.3499   -2.4157 H         1 <0>         0.0603
@<TRIPOS>BOND
     1    1    2 1
     2    1   26 1
     3    1   27 1
     4    1   28 1
     5    2    3 1
     6    2   12 1
     7    2    4 1
     8    4   10 ar
     9    4    5 ar
    10    5    6 ar
    11    5   25 1
    12    6    7 ar
    13    7    8 ar
    14    8    9 1
    15    8   10 ar
    16   10   11 1
    17   11   12 1
    18   11   13 2
    19   13   14 1
    20   14   15 2
    21   14   16 1
    22   16   17 1
    23   16   29 1
    24   16   30 1
    25   17   18 1
    26   18   23 1
    27   18   19 2
    28   19   20 1
    29   20   21 1
    30   20   31 1
    31   21   22 1
    32   21   23 1
    33   21   24 1
    34   24   32 1
    35   24   33 1
    36   24   34 1
    37   25   35 1
    38   25   36 1
    39   25   37 1
@<TRIPOS>MOLECULE
ZINC65246840
   42    44     0     0     0
SMALL
USER_CHARGES

@<TRIPOS>ATOM
      1 C1         -0.0187    1.5258    0.0104 C.3       1 <0>        -0.1453
      2 C2          0.0021   -0.0041    0.0020 C.3       1 <0>         0.2169
      3 H1         -1.0170   -0.3907    0.0097 H         1 <0>         0.1317
      4 N1          0.7157   -0.4909   -1.1869 N.2       1 <0>        -0.0493
      5 N2          1.5078   -1.4250   -1.1738 N.2       1 <0>        -0.2146
      6 C3          1.8714   -2.1607   -0.1091 C.2       1 <0>         0.4400
      7 O1          2.7247   -3.0094   -0.2151 O.2       1 <0>        -0.3874
      8 C4          1.2010   -1.9131    1.2211 C.3       1 <0>         0.0650
      9 H2          0.3803   -2.6082    1.3988 H         1 <0>         0.1214
     10 N3          0.7381   -0.5034    1.1715 N.pl3     1 <0>        -0.6571
     11 C5          1.1622    0.1516    2.2969 C.2       1 <0>         0.2403
     12 C6          2.0085   -0.5478    3.0220 C.2       1 <0>        -0.7548
     13 C7          2.2164   -1.9167    2.3720 C.3       1 <0>        -0.0275
     14 S1          2.7790    0.0021    4.5082 S.o2      1 <0>         2.6336
     15 O2          2.1530    1.2281    4.8606 O.2       1 <0>        -1.0359
     16 O3          2.8136   -1.1154    5.3852 O.2       1 <0>        -1.0288
     17 N4          4.3526    0.3631    4.1393 N.2       1 <0>        -1.0848
     18 C8          5.2141    0.8288    5.1350 C.ar      1 <0>         0.3403
     19 C9          4.7531    0.9839    6.4356 C.ar      1 <0>        -0.3186
     20 C10         5.6089    1.4463    7.4234 C.ar      1 <0>         0.2003
     21 C11         6.9251    1.7544    7.1127 C.ar      1 <0>        -0.3835
     22 C12         7.3863    1.5997    5.8138 C.ar      1 <0>         0.1857
     23 C13         6.5335    1.1316    4.8261 C.ar      1 <0>        -0.2383
     24 O4          8.6760    1.9023    5.5104 O.3       1 <0>        -0.3217
     25 C14         9.5001    2.3742    6.5782 C.3       1 <0>         0.0337
     26 O5          5.1580    1.5982    8.6963 O.3       1 <0>        -0.3223
     27 C15         6.0941    2.0790    9.6631 C.3       1 <0>         0.0329
     28 H3          1.0039    1.9031    0.0027 H         1 <0>         0.0758
     29 H4         -0.5459    1.8868   -0.8726 H         1 <0>         0.0946
     30 H5         -0.5289    1.8773    0.9072 H         1 <0>         0.0851
     31 H6          0.8344    1.1456    2.5631 H         1 <0>         0.1682
     32 H7          1.9940   -2.7181    3.0765 H         1 <0>         0.0975
     33 H8          3.2314   -2.0146    1.9869 H         1 <0>         0.0920
     34 H9          3.7281    0.7448    6.6775 H         1 <0>         0.1071
     35 H10         7.5911    2.1152    7.8825 H         1 <0>         0.1156
     36 H11         6.8940    1.0070    3.8157 H         1 <0>         0.1209
     37 H12         9.0735    3.2892    6.9892 H         1 <0>         0.0480
     38 H13         9.5532    1.6154    7.3589 H         1 <0>         0.0482
     39 H14        10.5022    2.5781    6.2009 H         1 <0>         0.0888
     40 H15         6.9342    1.3877    9.7305 H         1 <0>         0.0487
     41 H16         6.4558    3.0619    9.3612 H         1 <0>         0.0486
     42 H17         5.6064    2.1540   10.6350 H         1 <0>         0.0892
@<TRIPOS>BOND
     1    1    2 1
     2    1   28 1
     3    1   29 1
     4    1   30 1
     5    2    3 1
     6    2   10 1
     7    2    4 1
     8    4    5 2
     9    5    6 1
    10    6    7 2
    11    6    8 1
    12    8    9 1
    13    8   13 1
    14    8   10 1
    15   10   11 1
    16   11   12 2
    17   11   31 1
    18   12   13 1
    19   12   14 1
    20   13   32 1
    21   13   33 1
    22   14   15 2
    23   14   16 2
    24   14   17 1
    25   17   18 1
    26   18   23 ar
    27   18   19 ar
    28   19   20 ar
    29   19   34 1
    30   20   21 ar
    31   20   26 1
    32   21   22 ar
    33   21   35 1
    34   22   23 ar
    35   22   24 1
    36   23   36 1
    37   24   25 1
    38   25   37 1
    39   25   38 1
    40   25   39 1
    41   26   27 1
    42   27   40 1
    43   27   41 1
    44   27   42 1
@<TRIPOS>MOLECULE
ZINC03869842
   28    29     0     0     0
SMALL
USER_CHARGES
1-[4-hydroxy-5-(hydroxymethyl)tetrahydrofuran-2-yl]pyrimidine-2,4-dione
@<TRIPOS>ATOM
      1 C1          0.0021   -0.0041    0.0020 C.2       1 <0>        -0.2900
      2 C2         -0.0162    1.3460    0.0094 C.2       1 <0>         0.1750
      3 N1          1.1632    2.0398    0.0019 N.am      1 <0>        -0.5329
      4 C3          2.3408    1.3893   -0.0133 C.2       1 <0>         0.6989
      5 O1          3.3769    2.0255   -0.0202 O.2       1 <0>        -0.5243
      6 N2          2.3881    0.0441   -0.0205 N.am      1 <0>        -0.6642
      7 H1          3.2722   -0.4231   -0.0311 H         1 <0>         0.4375
      8 C4          1.2481   -0.6760   -0.0135 C.2       1 <0>         0.5490
      9 O2          1.2900   -1.8931   -0.0200 O.2       1 <0>        -0.5137
     10 C5          1.1434    3.5046    0.0095 C.3       1 <0>         0.3076
     11 H2          0.1182    3.8689   -0.0569 H         1 <0>         0.1226
     12 C6          1.8266    4.0451    1.2909 C.3       1 <0>        -0.1967
     13 C7          2.2698    5.4558    0.8161 C.3       1 <0>         0.0819
     14 H3          3.1492    5.7915    1.3656 H         1 <0>         0.0917
     15 C8          2.6111    5.2093   -0.6692 C.3       1 <0>         0.1016
     16 H4          3.6866    5.0761   -0.7858 H         1 <0>         0.1058
     17 O3          1.9269    4.0194   -1.0789 O.3       1 <0>        -0.3535
     18 C9          2.1406    6.3953   -1.5136 C.3       1 <0>         0.0760
     19 O4          2.5542    6.2091   -2.8687 O.3       1 <0>        -0.5694
     20 O5          1.2031    6.3981    0.9432 O.3       1 <0>        -0.5554
     21 H5         -0.9215   -0.5639    0.0075 H         1 <0>         0.1748
     22 H6         -0.9573    1.8758    0.0168 H         1 <0>         0.1806
     23 H7          1.1170    4.1131    2.1155 H         1 <0>         0.0993
     24 H8          2.6870    3.4344    1.5648 H         1 <0>         0.1080
     25 H9          1.0535    6.4628   -1.4715 H         1 <0>         0.0597
     26 H10         2.5771    7.3148   -1.1236 H         1 <0>         0.0615
     27 H11         2.2895    6.9249   -3.4626 H         1 <0>         0.3813
     28 H12         0.9516    6.5865    1.8578 H         1 <0>         0.3874
@<TRIPOS>BOND
     1    1    8 1
     2    1    2 2
     3    1   21 1
     4    2    3 1
     5    2   22 1
     6    3    4 am
     7    3   10 1
     8    4    5 2
     9    4    6 am
    10    6    7 1
    11    6    8 am
    12    8    9 2
    13   10   11 1
    14   10   17 1
    15   10   12 1
    16   12   13 1
    17   12   23 1
    18   12   24 1
    19   13   14 1
    20   13   15 1
    21   13   20 1
    22   15   16 1
    23   15   17 1
    24   15   18 1
    25   18   19 1
    26   18   25 1
    27   18   26 1
    28   19   27 1
    29   20   28 1
@<TRIPOS>MOLECULE
ZINC04801997
   33    33     0     0     0
SMALL
USER_CHARGES
6-(hydroxymethyl)-2-methoxy-5-methylsulfonyloxy-tetrahydropyran-3,4-diol
@<TRIPOS>ATOM
      1 C1          5.4428    1.9208   -2.5503 C.3       1 <0>         0.0295
      2 O1          4.0787    1.4966   -2.5127 O.3       1 <0>        -0.3653
      3 C2          3.3948    1.8448   -1.3072 C.3       1 <0>         0.2244
      4 H1          3.9914    1.5362   -0.4487 H         1 <0>         0.0667
      5 C3          2.0380    1.1368   -1.2671 C.3       1 <0>         0.0563
      6 H2          1.4565    1.4136   -2.1465 H         1 <0>         0.0914
      7 C4          1.2864    1.5618   -0.0018 C.3       1 <0>         0.0926
      8 H3          1.8423    1.2410    0.8792 H         1 <0>         0.0922
      9 C5          1.1466    3.0871    0.0077 C.3       1 <0>         0.0863
     10 H4          0.6617    3.4027    0.9314 H         1 <0>         0.1170
     11 C6          2.5379    3.7198   -0.0817 C.3       1 <0>         0.1068
     12 H5          3.1232    3.4358    0.7928 H         1 <0>         0.1011
     13 O2          3.1941    3.2590   -1.2646 O.3       1 <0>        -0.3692
     14 C7          2.4034    5.2430   -0.1333 C.3       1 <0>         0.0764
     15 O3          3.7025    5.8373   -0.0993 O.3       1 <0>        -0.5602
     16 O4          0.3595    3.5016   -1.1106 O.3       1 <0>        -0.7137
     17 S1         -1.1175    3.6867   -0.7934 S.o2      1 <0>         2.5999
     18 O5         -1.7447    3.8344   -2.0600 O.2       1 <0>        -0.9321
     19 O6         -1.4459    2.5948    0.0546 O.2       1 <0>        -0.9155
     20 C8         -1.2039    5.2445    0.1320 C.3       1 <0>        -0.7122
     21 O7         -0.0110    0.9628    0.0073 O.3       1 <0>        -0.5107
     22 O8          2.2379   -0.2781   -1.2512 O.3       1 <0>        -0.5553
     23 H6          5.4886    3.0058   -2.4564 H         1 <0>         0.0569
     24 H7          5.9890    1.4614   -1.7264 H         1 <0>         0.0453
     25 H8          5.8912    1.6188   -3.4967 H         1 <0>         0.0930
     26 H9          1.8956    5.5319   -1.0535 H         1 <0>         0.0702
     27 H10         1.8244    5.5858    0.7242 H         1 <0>         0.0673
     28 H11         3.6937    6.8038   -0.1289 H         1 <0>         0.3881
     29 H12        -0.8193    6.0560   -0.4859 H         1 <0>         0.1304
     30 H13        -2.2401    5.4512    0.3996 H         1 <0>         0.1369
     31 H14        -0.6040    5.1624    1.0384 H         1 <0>         0.1232
     32 H15         0.0021   -0.0041    0.0020 H         1 <0>         0.3869
     33 H16         2.7090   -0.6174   -2.0245 H         1 <0>         0.3955
@<TRIPOS>BOND
     1    1    2 1
     2    1   23 1
     3    1   24 1
     4    1   25 1
     5    2    3 1
     6    3    4 1
     7    3   13 1
     8    3    5 1
     9    5    6 1
    10    5    7 1
    11    5   22 1
    12    7    8 1
    13    7    9 1
    14    7   21 1
    15    9   10 1
    16    9   11 1
    17    9   16 1
    18   11   12 1
    19   11   13 1
    20   11   14 1
    21   14   15 1
    22   14   26 1
    23   14   27 1
    24   15   28 1
    25   16   17 1
    26   17   18 2
    27   17   19 2
    28   17   20 1
    29   20   29 1
    30   20   30 1
    31   20   31 1
    32   21   32 1
    33   22   33 1
@<TRIPOS>MOLECULE
ZINC30879604
   42    43     0     0     0
SMALL
USER_CHARGES
N-[[(2R,3R,4S,5S)-4-hydroxy-5-(hydroxymethyl)-3-morpholino-tetrahydrofuran-2-yl]methyl]methanesulfonamide
@<TRIPOS>ATOM
      1 C1         -0.9943    4.6236    0.5756 C.3       1 <0>        -0.6845
      2 S1         -0.0469    3.6319    1.7629 S.o2      1 <0>         2.6161
      3 O1         -0.6067    3.7582    3.0628 O.2       1 <0>        -0.9605
      4 O2          1.3464    3.8165    1.5531 O.2       1 <0>        -0.9569
      5 N1         -0.3348    2.0597    1.3297 N.pl3     1 <0>        -1.1265
      6 C2          0.1328    1.5594    0.0346 C.3       1 <0>         0.1177
      7 C3          0.0824    0.0303    0.0302 C.3       1 <0>         0.0760
      8 H1          0.5564   -0.3293    0.9554 H         1 <0>         0.0930
      9 C4          0.7214   -0.5252   -1.2619 C.3       1 <0>         0.0695
     10 H2          1.7928   -0.7559   -1.1678 H         1 <0>         0.1139
     11 C5         -0.1556   -1.7460   -1.6196 C.3       1 <0>         0.0627
     12 H3          0.3989   -2.6859   -1.7579 H         1 <0>         0.0786
     13 C6         -1.2206   -1.7837   -0.5013 C.3       1 <0>         0.0506
     14 H4         -0.9726   -2.4570    0.3325 H         1 <0>         0.0843
     15 O3         -1.2868   -0.4276   -0.0089 O.3       1 <0>        -0.3516
     16 C7         -2.5747   -2.2131   -1.0697 C.3       1 <0>         0.0896
     17 O4         -3.5157   -2.3542   -0.0035 O.3       1 <0>        -0.5953
     18 O5         -0.7744   -1.5616   -2.8944 O.3       1 <0>        -0.5637
     19 N2          0.6695    0.4777   -2.3340 N.3       1 <0>        -0.5182
     20 C8         -0.7189    0.8555   -2.6353 C.3       1 <0>        -0.0362
     21 C9         -0.7238    1.9429   -3.7130 C.3       1 <0>         0.0608
     22 O6         -0.0298    1.4649   -4.8686 O.3       1 <0>        -0.3829
     23 C10         1.3258    1.0886   -4.6113 C.3       1 <0>         0.0637
     24 C11         1.3514   -0.0075   -3.5427 C.3       1 <0>         0.0136
     25 H5         -0.5519    4.5179   -0.4259 H         1 <0>         0.1263
     26 H6         -0.9686    5.6809    0.8780 H         1 <0>         0.1292
     27 H7         -2.0368    4.2734    0.5548 H         1 <0>         0.1283
     28 H8         -1.0148    1.4493    1.9421 H         1 <0>         0.4450
     29 H9         -0.5143    1.9499   -0.7646 H         1 <0>         0.0841
     30 H10         1.1672    1.8927   -0.1355 H         1 <0>         0.1027
     31 H11        -2.9337   -1.4511   -1.7772 H         1 <0>         0.0582
     32 H12        -2.4649   -3.1752   -1.5916 H         1 <0>         0.0516
     33 H13        -4.5503   -2.6588   -0.2198 H         1 <0>         0.4133
     34 H14        -1.4356   -2.3402   -3.3026 H         1 <0>         0.3939
     35 H15        -1.2681   -0.0257   -2.9983 H         1 <0>         0.1178
     36 H16        -1.2009    1.2380   -1.7235 H         1 <0>         0.0940
     37 H17        -1.7619    2.1881   -3.9817 H         1 <0>         0.0931
     38 H18        -0.2223    2.8430   -3.3280 H         1 <0>         0.0485
     39 H19         1.7837    0.7112   -5.5375 H         1 <0>         0.0959
     40 H20         1.8881    1.9642   -4.2547 H         1 <0>         0.0551
     41 H21         2.3938   -0.2605   -3.2990 H         1 <0>         0.0767
     42 H22         0.8356   -0.9026   -3.9204 H         1 <0>         0.0722
@<TRIPOS>BOND
     1    1    2 1
     2    1   25 1
     3    1   26 1
     4    1   27 1
     5    2    3 2
     6    2    4 2
     7    2    5 1
     8    5    6 1
     9    5   28 1
    10    6    7 1
    11    6   29 1
    12    6   30 1
    13    7    8 1
    14    7   15 1
    15    7    9 1
    16    9   10 1
    17    9   11 1
    18    9   19 1
    19   11   12 1
    20   11   13 1
    21   11   18 1
    22   13   14 1
    23   13   15 1
    24   13   16 1
    25   16   17 1
    26   16   31 1
    27   16   32 1
    28   17   33 1
    29   18   34 1
    30   19   24 1
    31   19   20 1
    32   20   21 1
    33   20   35 1
    34   20   36 1
    35   21   22 1
    36   21   37 1
    37   21   38 1
    38   22   23 1
    39   23   24 1
    40   23   39 1
    41   23   40 1
    42   24   41 1
    43   24   42 1
@<TRIPOS>MOLECULE
ZINC40347049
   28    29     0     0     0
SMALL
USER_CHARGES

@<TRIPOS>ATOM
      1 C1         -0.0178    1.4608    0.0101 C.3       1 <0>         0.0657
      2 N1          0.0021   -0.0041    0.0020 N.pl3     1 <0>        -0.4700
      3 C2          0.0087   -0.8131   -1.0848 C.2       1 <0>         0.1613
      4 N2          0.0272   -2.0444   -0.6522 N.2       1 <0>        -0.2921
      5 N3          0.0324   -2.0514    0.6337 N.2       1 <0>        -0.2649
      6 C3          0.0235   -0.8248    1.0798 C.2       1 <0>         0.1547
      7 C4          0.0319   -0.4002    2.5258 C.3       1 <0>         0.2041
      8 N4         -1.3464   -0.2810    3.0078 N.pl3     1 <0>        -1.1159
      9 S1         -1.6507   -0.1956    4.6333 S.o2      1 <0>         2.7280
     10 O1         -3.0579   -0.0603    4.7765 O.2       1 <0>        -0.9559
     11 O2         -0.9216   -1.2543    5.2391 O.2       1 <0>        -0.9488
     12 C5         -0.9382    1.3059    5.2185 C.2       1 <0>        -0.8538
     13 C6         -1.6123    2.3602    5.7316 C.2       1 <0>         0.2108
     14 N5         -0.7097    3.3078    6.0615 N.pl3     1 <0>        -0.4500
     15 H1         -0.9089    4.1731    6.4519 H         1 <0>         0.4485
     16 N6          0.5651    2.8233    5.7417 N.2       1 <0>        -0.3435
     17 C7          0.4309    1.6179    5.2406 C.2       1 <0>         0.4130
     18 N7          1.4703    0.7894    4.8016 N.pl3     1 <0>        -0.8438
     19 H2          1.0048    1.8381    0.0023 H         1 <0>         0.0876
     20 H3         -0.5450    1.8219   -0.8730 H         1 <0>         0.0980
     21 H4         -0.5280    1.8123    0.9069 H         1 <0>         0.0929
     22 H5         -0.0002   -0.4977   -2.1177 H         1 <0>         0.2234
     23 H6          0.5615   -1.1449    3.1200 H         1 <0>         0.1139
     24 H7          0.5339    0.5628    2.6187 H         1 <0>         0.0905
     25 H8         -2.0808   -0.2521    2.3747 H         1 <0>         0.4228
     26 H9         -2.6828    2.4312    5.8554 H         1 <0>         0.1997
     27 H10         1.2712   -0.0893    4.4421 H         1 <0>         0.4101
     28 H11         2.3896    1.0939    4.8571 H         1 <0>         0.4138
@<TRIPOS>BOND
     1    1    2 1
     2    1   19 1
     3    1   20 1
     4    1   21 1
     5    2    6 1
     6    2    3 1
     7    3    4 2
     8    3   22 1
     9    4    5 1
    10    5    6 2
    11    6    7 1
    12    7    8 1
    13    7   23 1
    14    7   24 1
    15    8    9 1
    16    8   25 1
    17    9   10 2
    18    9   11 2
    19    9   12 1
    20   12   17 1
    21   12   13 2
    22   13   14 1
    23   13   26 1
    24   14   15 1
    25   14   16 1
    26   16   17 2
    27   17   18 1
    28   18   27 1
    29   18   28 1
@<TRIPOS>MOLECULE
ZINC48952912
   38    38     0     0     0
SMALL
USER_CHARGES

@<TRIPOS>ATOM
      1 C1          0.4184    1.4591   -0.0222 C.3       1 <0>        -0.1738
      2 C2          0.2097   -0.0334   -0.0186 C.2       1 <0>         0.5205
      3 O1          0.3218   -0.6590    1.0143 O.2       1 <0>        -0.5399
      4 N1         -0.1016   -0.6730   -1.1634 N.am      1 <0>        -0.6041
      5 C3         -0.1238    0.0620   -2.4305 C.3       1 <0>         0.0781
      6 C4         -0.4177   -2.1033   -1.1407 C.3       1 <0>         0.1055
      7 C5         -1.8987   -2.2872   -0.9310 C.2       1 <0>         0.4985
      8 O2         -2.6192   -1.3188   -0.8122 O.2       1 <0>        -0.5172
      9 N2         -2.4225   -3.5278   -0.8755 N.am      1 <0>        -0.5320
     10 N3         -3.7993   -3.6987   -0.6805 N.am      1 <0>        -0.5280
     11 C6         -4.3232   -4.9392   -0.6250 C.2       1 <0>         0.7150
     12 O3         -5.5180   -5.0876   -0.4558 O.2       1 <0>        -0.5632
     13 N4         -3.5225   -6.0154   -0.7570 N.am      1 <0>        -0.7340
     14 C7         -4.0919   -7.3638   -0.6966 C.3       1 <0>         0.1642
     15 H1         -4.9235   -7.3742    0.0080 H         1 <0>         0.1176
     16 C8         -4.5995   -7.7666   -2.0911 C.3       1 <0>        -0.1473
     17 C9         -4.9042   -9.2917   -2.0738 C.3       1 <0>        -0.5691
     18 S1         -3.4719   -9.9106   -1.0938 S.o2      1 <0>         2.3798
     19 O4         -3.9380  -10.8547   -0.1396 O.2       1 <0>        -0.9290
     20 O5         -2.4254  -10.2743   -1.9837 O.2       1 <0>        -0.9288
     21 C10        -3.0055   -8.3597   -0.2240 C.3       1 <0>        -0.6020
     22 H2          1.4491    1.6811   -0.2986 H         1 <0>         0.0963
     23 H3         -0.2581    1.9188   -0.7426 H         1 <0>         0.0869
     24 H4          0.2151    1.8567    0.9722 H         1 <0>         0.0950
     25 H5          0.8838    0.1039   -2.8439 H         1 <0>         0.0647
     26 H6         -0.7842   -0.4456   -3.1335 H         1 <0>         0.0740
     27 H7         -0.4876    1.0747   -2.2567 H         1 <0>         0.0791
     28 H8         -0.1262   -2.5550   -2.0889 H         1 <0>         0.1179
     29 H9          0.1267   -2.5829   -0.3273 H         1 <0>         0.1233
     30 H10        -1.8463   -4.3022   -0.9705 H         1 <0>         0.4196
     31 H11        -4.3756   -2.9242   -0.5855 H         1 <0>         0.4460
     32 H12        -2.5693   -5.8970   -0.8920 H         1 <0>         0.3960
     33 H13        -5.5080   -7.2123   -2.3265 H         1 <0>         0.1096
     34 H14        -3.8343   -7.5525   -2.8374 H         1 <0>         0.0924
     35 H15        -5.8471   -9.4996   -1.5681 H         1 <0>         0.1445
     36 H16        -4.9004   -9.7060   -3.0820 H         1 <0>         0.1466
     37 H17        -2.0148   -8.0261   -0.5327 H         1 <0>         0.1454
     38 H18        -3.0494   -8.4954    0.8567 H         1 <0>         0.1518
@<TRIPOS>BOND
     1    1    2 1
     2    1   22 1
     3    1   23 1
     4    1   24 1
     5    2    3 2
     6    2    4 am
     7    4    5 1
     8    4    6 1
     9    5   25 1
    10    5   26 1
    11    5   27 1
    12    6    7 1
    13    6   28 1
    14    6   29 1
    15    7    8 2
    16    7    9 am
    17    9   10 1
    18    9   30 1
    19   10   11 am
    20   10   31 1
    21   11   12 2
    22   11   13 am
    23   13   14 1
    24   13   32 1
    25   14   15 1
    26   14   21 1
    27   14   16 1
    28   16   17 1
    29   16   33 1
    30   16   34 1
    31   17   18 1
    32   17   35 1
    33   17   36 1
    34   18   19 2
    35   18   20 2
    36   18   21 1
    37   21   37 1
    38   21   38 1
@<TRIPOS>MOLECULE
ZINC04342508
   19    19     0     0     0
SMALL
USER_CHARGES
2-(3-nitro-1,2,4-triazol-1-yl)acetohydrazide
@<TRIPOS>ATOM
      1 C1         -1.1559    0.8043    2.2279 C.2       1 <0>         0.2898
      2 N1         -1.7044    1.5999    3.1098 N.2       1 <0>        -0.4898
      3 C2         -1.6167    2.8632    2.6951 C.2       1 <0>         0.2730
      4 N2         -1.0031    2.8895    1.5413 N.2       1 <0>        -0.1867
      5 N3         -0.6984    1.5583    1.2133 N.pl3     1 <0>        -0.3456
      6 C3         -0.0127    1.0858    0.0080 C.3       1 <0>         0.1127
      7 C4         -0.7416    1.5850   -1.2129 C.2       1 <0>         0.4975
      8 O1         -1.7359    2.2682   -1.0884 O.2       1 <0>        -0.4952
      9 N4         -0.2884    1.2723   -2.4431 N.am      1 <0>        -0.5704
     10 N5         -0.9491    1.7248   -3.5497 N.3       1 <0>        -0.6002
     11 N6         -2.1263    4.0455    3.4255 N.pl3     1 <0>         0.0598
     12 O2         -2.6800    3.9048    4.5012 O.2       1 <0>        -0.0918
     13 O3         -1.9918    5.1591    2.9508 O.3       1 <0>        -0.1063
     14 H1         -1.0835   -0.2707    2.3019 H         1 <0>         0.2486
     15 H2          0.0021   -0.0041    0.0020 H         1 <0>         0.1483
     16 H3          1.0099    1.4631    0.0003 H         1 <0>         0.1365
     17 H4          0.5068    0.7259   -2.5426 H         1 <0>         0.4047
     18 H5         -0.4953    1.4121   -4.3949 H         1 <0>         0.3640
     19 H6         -1.9176    1.4421   -3.5335 H         1 <0>         0.3511
@<TRIPOS>BOND
     1    1    5 1
     2    1    2 2
     3    1   14 1
     4    2    3 1
     5    3    4 2
     6    3   11 1
     7    4    5 1
     8    5    6 1
     9    6    7 1
    10    6   15 1
    11    6   16 1
    12    7    8 2
    13    7    9 am
    14    9   10 1
    15    9   17 1
    16   10   18 1
    17   10   19 1
    18   11   12 2
    19   11   13 1
@<TRIPOS>MOLECULE
ZINC05647631
   34    36     0     0     0
SMALL
USER_CHARGES
1-[(2S,3S,5R)-3-hydroxy-5-(hydroxymethyl)tetrahydrofuran-2-yl]-6,7-dihydro-4H-imidazo[5,4-f][1,4]diazepine-5,8-dione
@<TRIPOS>ATOM
      1 C1         -0.8686    1.2748   -2.3465 C.2       1 <0>         0.2621
      2 N1         -1.5417    2.0216   -3.1827 N.2       1 <0>        -0.4983
      3 C2         -1.8427    3.1917   -2.6051 C.2       1 <0>         0.2898
      4 C3         -1.3282    3.1612   -1.3226 C.2       1 <0>        -0.0938
      5 N2         -0.7124    1.9285   -1.1808 N.pl3     1 <0>        -0.4225
      6 C4         -0.0174    1.4332    0.0099 C.3       1 <0>         0.3067
      7 H1         -0.5174    1.7922    0.9095 H         1 <0>         0.1228
      8 C5          1.4475    1.9113   -0.0015 C.3       1 <0>         0.0777
      9 H2          1.6594    2.4699   -0.9132 H         1 <0>         0.0819
     10 C6          2.2740    0.6028    0.0367 C.3       1 <0>        -0.1845
     11 C7          1.2492   -0.4120    0.6044 C.3       1 <0>         0.0847
     12 H3          1.1932   -0.3379    1.6904 H         1 <0>         0.0941
     13 O1          0.0021   -0.0041    0.0020 O.3       1 <0>        -0.3531
     14 C8          1.6111   -1.8371    0.1812 C.3       1 <0>         0.0824
     15 O2          0.6591   -2.7524    0.7270 O.3       1 <0>        -0.5657
     16 O3          1.7219    2.7101    1.1512 O.3       1 <0>        -0.5352
     17 C9         -1.4179    4.2113   -0.3183 C.2       1 <0>         0.5906
     18 O4         -0.4794    4.4047    0.4331 O.2       1 <0>        -0.5066
     19 N3         -2.5197    4.9697   -0.2089 N.am      1 <0>        -0.7038
     20 C10        -3.6935    4.7385   -1.0418 C.3       1 <0>         0.0948
     21 C11        -3.3927    4.9973   -2.4870 C.2       1 <0>         0.5122
     22 O5         -3.9406    5.9268   -3.0406 O.2       1 <0>        -0.5110
     23 N4         -2.5405    4.2398   -3.1892 N.am      1 <0>        -0.6221
     24 H4         -0.4966    0.2833   -2.5585 H         1 <0>         0.2231
     25 H5          3.1312    0.7035    0.7024 H         1 <0>         0.1025
     26 H6          2.5928    0.3147   -0.9650 H         1 <0>         0.0948
     27 H7          1.6001   -1.9070   -0.9065 H         1 <0>         0.0583
     28 H8          2.6062   -2.0843    0.5512 H         1 <0>         0.0687
     29 H9          0.8268   -3.6770    0.4988 H         1 <0>         0.3856
     30 H10         2.6306    3.0380    1.1952 H         1 <0>         0.3880
     31 H11        -2.5352    5.6900    0.4406 H         1 <0>         0.4195
     32 H12        -4.0171    3.7044   -0.9239 H         1 <0>         0.1003
     33 H13        -4.4963    5.4019   -0.7197 H         1 <0>         0.1345
     34 H14        -2.4071    4.4286   -4.1313 H         1 <0>         0.4216
@<TRIPOS>BOND
     1    1    5 1
     2    1    2 2
     3    1   24 1
     4    2    3 1
     5    3   23 1
     6    3    4 2
     7    4    5 1
     8    4   17 1
     9    5    6 1
    10    6    7 1
    11    6   13 1
    12    6    8 1
    13    8    9 1
    14    8   10 1
    15    8   16 1
    16   10   11 1
    17   10   25 1
    18   10   26 1
    19   11   12 1
    20   11   13 1
    21   11   14 1
    22   14   15 1
    23   14   27 1
    24   14   28 1
    25   15   29 1
    26   16   30 1
    27   17   18 2
    28   17   19 am
    29   19   20 1
    30   19   31 1
    31   20   21 1
    32   20   32 1
    33   20   33 1
    34   21   22 2
    35   21   23 am
    36   23   34 1
@<TRIPOS>MOLECULE
ZINC37559352
   30    30     0     0     0
SMALL
USER_CHARGES

@<TRIPOS>ATOM
      1 C1         -0.0178    1.4608    0.0101 C.3       1 <0>         0.0932
      2 N1          0.0021   -0.0041    0.0020 N.pl3     1 <0>        -0.3501
      3 C2          0.0078   -0.7908   -1.0946 C.2       1 <0>         0.2018
      4 C3          0.0280   -2.0784   -0.6813 C.2       1 <0>        -0.8546
      5 C4          0.0349   -2.0800    0.7230 C.2       1 <0>         0.4120
      6 N2          0.0245   -0.8328    1.1310 N.2       1 <0>        -0.3439
      7 N3          0.0549   -3.2137    1.5440 N.pl3     1 <0>        -0.8453
      8 S1          0.0430   -3.5013   -1.7203 S.o2      1 <0>         2.7246
      9 O1         -0.9684   -4.3717   -1.2317 O.2       1 <0>        -0.9532
     10 O2          0.0575   -3.0262   -3.0595 O.2       1 <0>        -0.9582
     11 N4          1.4887   -4.2711   -1.4756 N.pl3     1 <0>        -1.1113
     12 C5          1.7947   -4.8566   -0.1681 C.3       1 <0>         0.1222
     13 C6          2.9843   -5.8094   -0.3017 C.3       1 <0>        -0.6416
     14 S2          3.3632   -6.5344    1.3174 S.o2      1 <0>         2.6185
     15 O3          3.8595   -5.5349    2.1972 O.2       1 <0>        -0.9529
     16 O4          2.3124   -7.4003    1.7239 O.2       1 <0>        -0.9518
     17 N5          4.6538   -7.5354    1.0440 N.pl3     1 <0>        -1.2484
     18 H1          1.0048    1.8381    0.0023 H         1 <0>         0.0840
     19 H2         -0.5450    1.8219   -0.8730 H         1 <0>         0.0959
     20 H3         -0.5280    1.8123    0.9069 H         1 <0>         0.0967
     21 H4         -0.0023   -0.4522   -2.1201 H         1 <0>         0.1964
     22 H5          0.0654   -4.0991    1.1481 H         1 <0>         0.4076
     23 H6          0.0581   -3.1138    2.5089 H         1 <0>         0.4149
     24 H7          2.1329   -4.3343   -2.1981 H         1 <0>         0.4238
     25 H8          2.0423   -4.0627    0.5366 H         1 <0>         0.0888
     26 H9          0.9271   -5.4074    0.1954 H         1 <0>         0.0951
     27 H10         2.7366   -6.6033   -1.0063 H         1 <0>         0.1499
     28 H11         3.8519   -5.2586   -0.6651 H         1 <0>         0.1477
     29 H12         5.0243   -7.6162    0.1512 H         1 <0>         0.4143
     30 H13         5.0392   -8.0409    1.7766 H         1 <0>         0.4238
@<TRIPOS>BOND
     1    1    2 1
     2    1   18 1
     3    1   19 1
     4    1   20 1
     5    2    6 1
     6    2    3 1
     7    3    4 2
     8    3   21 1
     9    4    5 1
    10    4    8 1
    11    5    6 2
    12    5    7 1
    13    7   22 1
    14    7   23 1
    15    8    9 2
    16    8   10 2
    17    8   11 1
    18   11   12 1
    19   11   24 1
    20   12   13 1
    21   12   25 1
    22   12   26 1
    23   13   14 1
    24   13   27 1
    25   13   28 1
    26   14   15 2
    27   14   16 2
    28   14   17 1
    29   17   29 1
    30   17   30 1
@<TRIPOS>MOLECULE
ZINC44127255
   30    30     0     0     0
SMALL
USER_CHARGES

@<TRIPOS>ATOM
      1 C1         -0.0184    1.5028    0.0103 C.3       1 <0>        -0.1723
      2 C2          0.0021   -0.0041    0.0020 C.2       1 <0>         0.5179
      3 O1          1.0605   -0.5961   -0.0113 O.2       1 <0>        -0.5435
      4 N1         -1.1558   -0.6938    0.0094 N.am      1 <0>        -0.7071
      5 C3         -1.1360   -2.1586    0.0013 C.3       1 <0>         0.1622
      6 H1         -0.2841   -2.5149    0.5805 H         1 <0>         0.1100
      7 C4         -2.4332   -2.6921    0.6169 C.3       1 <0>         0.0788
      8 H2         -2.5486   -2.2940    1.6250 H         1 <0>         0.0727
      9 C5         -3.6179   -2.2503   -0.2464 C.3       1 <0>         0.0603
     10 H3         -3.6776   -1.1620   -0.2522 H         1 <0>         0.0772
     11 O2         -3.4354   -2.7247   -1.5819 O.3       1 <0>        -0.3657
     12 C6         -2.2627   -2.2211   -2.2249 C.3       1 <0>         0.2275
     13 H4         -2.2086   -2.6126   -3.2407 H         1 <0>         0.1019
     14 C7         -1.0214   -2.6616   -1.4410 C.3       1 <0>         0.0828
     15 H5         -0.1280   -2.2417   -1.9033 H         1 <0>         0.0759
     16 O3         -0.9366   -4.0881   -1.4439 O.3       1 <0>        -0.5217
     17 O4         -2.3179   -0.7938   -2.2667 O.3       1 <0>        -0.5711
     18 C8         -4.9121   -2.8293    0.3286 C.3       1 <0>         0.0789
     19 O5         -6.0281   -2.3235   -0.4067 O.3       1 <0>        -0.5634
     20 O6         -2.3851   -4.1193    0.6697 O.3       1 <0>        -0.5248
     21 H6          1.0042    1.8801    0.0026 H         1 <0>         0.0936
     22 H7         -0.5455    1.8639   -0.8728 H         1 <0>         0.0915
     23 H8         -0.5286    1.8543    0.9071 H         1 <0>         0.0881
     24 H9         -2.0023   -0.2203    0.0200 H         1 <0>         0.4042
     25 H10        -0.8618   -4.4758   -2.3266 H         1 <0>         0.3770
     26 H11        -3.0799   -0.4435   -2.7481 H         1 <0>         0.3867
     27 H12        -4.8892   -3.9164    0.2523 H         1 <0>         0.0598
     28 H13        -5.0057   -2.5405    1.3755 H         1 <0>         0.0637
     29 H14        -6.8840   -2.6494   -0.0962 H         1 <0>         0.3843
     30 H15        -3.1762   -4.5257    1.0493 H         1 <0>         0.3747
@<TRIPOS>BOND
     1    1    2 1
     2    1   21 1
     3    1   22 1
     4    1   23 1
     5    2    3 2
     6    2    4 am
     7    4    5 1
     8    4   24 1
     9    5    6 1
    10    5   14 1
    11    5    7 1
    12    7    8 1
    13    7    9 1
    14    7   20 1
    15    9   10 1
    16    9   11 1
    17    9   18 1
    18   11   12 1
    19   12   13 1
    20   12   14 1
    21   12   17 1
    22   14   15 1
    23   14   16 1
    24   16   25 1
    25   17   26 1
    26   18   19 1
    27   18   27 1
    28   18   28 1
    29   19   29 1
    30   20   30 1
@<TRIPOS>MOLECULE
ZINC54104493
   24    24     0     0     0
SMALL
USER_CHARGES

@<TRIPOS>ATOM
      1 C1         -0.0184    1.5028    0.0103 C.3       1 <0>        -0.1733
      2 C2          0.0021   -0.0041    0.0020 C.2       1 <0>         0.5085
      3 O1          0.0203   -0.6160    1.0489 O.2       1 <0>        -0.5420
      4 N1          0.0001   -0.6716   -1.1688 N.am      1 <0>        -0.7180
      5 C3          0.0199   -2.1365   -1.1769 C.3       1 <0>         0.1425
      6 H1         -0.5495   -2.4955   -0.3196 H         1 <0>         0.1126
      7 C4          1.4832   -2.6106   -1.0305 C.3       1 <0>        -0.5787
      8 S1          1.4913   -4.0973   -2.1246 S.o2      1 <0>         2.3723
      9 O2          0.9615   -5.2077   -1.4136 O.2       1 <0>        -0.9240
     10 O3          2.7571   -4.2063   -2.7611 O.2       1 <0>        -0.9294
     11 C5          0.2413   -3.4996   -3.3444 C.3       1 <0>        -0.5713
     12 C6         -0.6577   -2.6242   -2.4486 C.3       1 <0>         0.0805
     13 H2         -1.5389   -3.2036   -2.1729 H         1 <0>         0.0745
     14 N2         -1.0953   -1.4560   -3.2243 N.3       1 <0>        -0.8400
     15 H3          1.0042    1.8801    0.0026 H         1 <0>         0.0963
     16 H4         -0.5455    1.8639   -0.8728 H         1 <0>         0.0820
     17 H5         -0.5286    1.8543    0.9071 H         1 <0>         0.0954
     18 H6         -0.0145   -0.1822   -2.0061 H         1 <0>         0.4166
     19 H7          2.1785   -1.8535   -1.3931 H         1 <0>         0.1444
     20 H8          1.7057   -2.8823    0.0014 H         1 <0>         0.1472
     21 H9          0.7112   -2.9039   -4.1269 H         1 <0>         0.1516
     22 H10        -0.3189   -4.3316   -3.7709 H         1 <0>         0.1435
     23 H11        -1.5513   -1.7394   -4.0786 H         1 <0>         0.3574
     24 H12        -1.6962   -0.8609   -2.6739 H         1 <0>         0.3511
@<TRIPOS>BOND
     1    1    2 1
     2    1   15 1
     3    1   16 1
     4    1   17 1
     5    2    3 2
     6    2    4 am
     7    4    5 1
     8    4   18 1
     9    5    6 1
    10    5   12 1
    11    5    7 1
    12    7    8 1
    13    7   19 1
    14    7   20 1
    15    8    9 2
    16    8   10 2
    17    8   11 1
    18   11   12 1
    19   11   21 1
    20   11   22 1
    21   12   13 1
    22   12   14 1
    23   14   23 1
    24   14   24 1
@<TRIPOS>MOLECULE
ZINC12378540
   42    42     0     0     0
SMALL
USER_CHARGES
N-[(2R,3S,4S,5S,6S)-4,5-dihydroxy-6-(hydroxymethyl)-2-sec-butoxy-tetrahydropyran-3-yl]acetamide
@<TRIPOS>ATOM
      1 C1          1.9703    0.9800   -3.2975 C.3       1 <0>        -0.1504
      2 C2          0.9899   -0.1693   -3.5401 C.3       1 <0>        -0.1168
      3 C3         -0.1572   -0.0827   -2.5313 C.3       1 <0>         0.0850
      4 H1         -0.6183    0.9033   -2.5892 H         1 <0>         0.0708
      5 C4         -1.2013   -1.1537   -2.8531 C.3       1 <0>        -0.1775
      6 O1          0.3512   -0.2941   -1.2127 O.3       1 <0>        -0.3872
      7 C5         -0.4571    0.2738   -0.1801 C.3       1 <0>         0.2371
      8 H2         -1.4989   -0.0040   -0.3396 H         1 <0>         0.1115
      9 C6          0.0090   -0.2515    1.1802 C.3       1 <0>         0.1468
     10 H3         -0.6326    0.1495    1.9648 H         1 <0>         0.1230
     11 C7          1.4542    0.1942    1.4231 C.3       1 <0>         0.1108
     12 H4          2.1038   -0.2470    0.6672 H         1 <0>         0.0850
     13 C8          1.5277    1.7216    1.3336 C.3       1 <0>         0.0500
     14 H5          2.5622    2.0441    1.4514 H         1 <0>         0.0748
     15 C9          1.0030    2.1708   -0.0327 C.3       1 <0>         0.0543
     16 H6          1.6386    1.7624   -0.8184 H         1 <0>         0.0900
     17 O2         -0.3340    1.6973   -0.2072 O.3       1 <0>        -0.3621
     18 C10         1.0170    3.6989   -0.1075 C.3       1 <0>         0.0803
     19 O3          0.6370    4.1150   -1.4207 O.3       1 <0>        -0.5599
     20 O4          0.7267    2.2996    2.3662 O.3       1 <0>        -0.5405
     21 O5          1.8738   -0.2310    2.7212 O.3       1 <0>        -0.5450
     22 N1         -0.0602   -1.7148    1.1898 N.am      1 <0>        -0.7104
     23 C11        -1.2188   -2.3328    1.4936 C.2       1 <0>         0.5126
     24 O6         -2.2041   -1.6774    1.7591 O.2       1 <0>        -0.5453
     25 C12        -1.2899   -3.8380    1.5034 C.3       1 <0>        -0.1717
     26 H7          2.4423    0.8553   -2.3230 H         1 <0>         0.0534
     27 H8          2.7346    0.9758   -4.0747 H         1 <0>         0.0535
     28 H9          1.4324    1.9277   -3.3221 H         1 <0>         0.0600
     29 H10         1.5083   -1.1206   -3.4201 H         1 <0>         0.0690
     30 H11         0.5902   -0.0985   -4.5517 H         1 <0>         0.0758
     31 H12        -2.0185   -1.0921   -2.1344 H         1 <0>         0.0553
     32 H13        -1.5891   -0.9925   -3.8590 H         1 <0>         0.0677
     33 H14        -0.7402   -2.1397   -2.7952 H         1 <0>         0.0631
     34 H15         0.3139    4.1047    0.6199 H         1 <0>         0.0579
     35 H16         2.0198    4.0643    0.1135 H         1 <0>         0.0622
     36 H17         0.6240    5.0744   -1.5409 H         1 <0>         0.3832
     37 H18         0.7268    3.2666    2.3693 H         1 <0>         0.3772
     38 H19         2.7817    0.0181    2.9423 H         1 <0>         0.3811
     39 H20         0.7279   -2.2390    0.9774 H         1 <0>         0.4053
     40 H21        -1.0434   -4.2070    2.4990 H         1 <0>         0.0955
     41 H22        -2.2981   -4.1559    1.2374 H         1 <0>         0.0941
     42 H23        -0.5797   -4.2401    0.7808 H         1 <0>         0.0805
@<TRIPOS>BOND
     1    1    2 1
     2    1   26 1
     3    1   27 1
     4    1   28 1
     5    2    3 1
     6    2   29 1
     7    2   30 1
     8    3    4 1
     9    3    5 1
    10    3    6 1
    11    5   31 1
    12    5   32 1
    13    5   33 1
    14    6    7 1
    15    7    8 1
    16    7   17 1
    17    7    9 1
    18    9   10 1
    19    9   11 1
    20    9   22 1
    21   11   12 1
    22   11   13 1
    23   11   21 1
    24   13   14 1
    25   13   15 1
    26   13   20 1
    27   15   16 1
    28   15   17 1
    29   15   18 1
    30   18   19 1
    31   18   34 1
    32   18   35 1
    33   19   36 1
    34   20   37 1
    35   21   38 1
    36   22   23 am
    37   22   39 1
    38   23   24 2
    39   23   25 1
    40   25   40 1
    41   25   41 1
    42   25   42 1
@<TRIPOS>MOLECULE
ZINC37841916
   40    41     0     0     0
SMALL
USER_CHARGES

@<TRIPOS>ATOM
      1 C1         -0.2791    1.9290   -0.8136 C.3       1 <0>        -0.1357
      2 C2          1.1492    2.4758   -0.7585 C.3       1 <0>        -0.1174
      3 C3          2.0212    1.7328   -1.7733 C.3       1 <0>        -0.1096
      4 H1          1.6022    1.8558   -2.7720 H         1 <0>         0.0894
      5 C4          2.0593    0.2440   -1.4145 C.3       1 <0>         0.1117
      6 N1          0.6807   -0.2558   -1.3231 N.am      1 <0>        -0.5903
      7 C5         -0.2671    0.4424   -0.4440 C.3       1 <0>         0.0729
      8 C6          0.2928   -1.3341   -2.0326 C.2       1 <0>         0.5754
      9 O1          1.0403   -1.8179   -2.8615 O.2       1 <0>        -0.5179
     10 C7         -1.0312   -1.9244   -1.8052 C.2       1 <0>         0.0848
     11 N2         -1.7466   -1.5229   -0.8007 N.2       1 <0>        -0.1968
     12 N3         -3.0120   -2.0639   -0.5518 N.am      1 <0>        -0.5663
     13 C8         -3.3636   -3.2501   -1.0856 C.2       1 <0>         0.4984
     14 O2         -4.4604   -3.7166   -0.8628 O.2       1 <0>        -0.5107
     15 C9         -2.3883   -3.9950   -1.9615 C.3       1 <0>        -0.1437
     16 C10        -1.5431   -2.9836   -2.7446 C.3       1 <0>        -0.1077
     17 C11         3.4406    2.3030   -1.7412 C.3       1 <0>         0.1192
     18 N4          4.2431    1.6749   -2.7936 N.pl3     1 <0>        -1.1260
     19 S1          5.6896    2.3443   -3.2428 S.o2      1 <0>         2.7996
     20 O3          6.2316    1.5017   -4.2505 O.2       1 <0>        -0.9806
     21 O4          5.4479    3.7283   -3.4558 O.2       1 <0>        -0.9804
     22 N5          6.7049    2.2364   -1.9390 N.pl3     1 <0>        -1.2594
     23 H2         -0.9050    2.4744   -0.1073 H         1 <0>         0.0818
     24 H3         -0.6764    2.0501   -1.8214 H         1 <0>         0.0676
     25 H4          1.1403    3.5393   -0.9972 H         1 <0>         0.0742
     26 H5          1.5547    2.3320    0.2430 H         1 <0>         0.0713
     27 H6          2.5964   -0.3047   -2.1882 H         1 <0>         0.0969
     28 H7          2.5602    0.1119   -0.4555 H         1 <0>         0.0778
     29 H8          0.0441    0.3265    0.5942 H         1 <0>         0.0746
     30 H9         -1.2650    0.0246   -0.5773 H         1 <0>         0.1375
     31 H10        -3.6404   -1.5824    0.0088 H         1 <0>         0.4345
     32 H11        -1.7397   -4.6130   -1.3405 H         1 <0>         0.1112
     33 H12        -2.9359   -4.6279   -2.6598 H         1 <0>         0.1226
     34 H13        -2.1532   -2.5179   -3.5187 H         1 <0>         0.1049
     35 H14        -0.7000   -3.4967   -3.2072 H         1 <0>         0.1201
     36 H15         3.4034    3.3798   -1.9064 H         1 <0>         0.0894
     37 H16         3.8919    2.0998   -0.7700 H         1 <0>         0.0690
     38 H17         3.9271    0.8668   -3.2274 H         1 <0>         0.4223
     39 H18         7.6616    2.1518   -2.0750 H         1 <0>         0.4222
     40 H19         6.3430    2.2577   -1.0393 H         1 <0>         0.4134
@<TRIPOS>BOND
     1    1    7 1
     2    1    2 1
     3    1   23 1
     4    1   24 1
     5    2    3 1
     6    2   25 1
     7    2   26 1
     8    3    4 1
     9    3    5 1
    10    3   17 1
    11    5    6 1
    12    5   27 1
    13    5   28 1
    14    6    7 1
    15    6    8 am
    16    7   29 1
    17    7   30 1
    18    8    9 2
    19    8   10 1
    20   10   16 1
    21   10   11 2
    22   11   12 1
    23   12   13 am
    24   12   31 1
    25   13   14 2
    26   13   15 1
    27   15   16 1
    28   15   32 1
    29   15   33 1
    30   16   34 1
    31   16   35 1
    32   17   18 1
    33   17   36 1
    34   17   37 1
    35   18   19 1
    36   18   38 1
    37   19   20 2
    38   19   21 2
    39   19   22 1
    40   22   39 1
    41   22   40 1
@<TRIPOS>MOLECULE
ZINC41071193
   30    31     0     0     0
SMALL
USER_CHARGES

@<TRIPOS>ATOM
      1 C1         -0.0159    1.3185    0.0093 C.ar      1 <0>         0.2948
      2 C2          1.1847    2.0111    0.0015 C.ar      1 <0>        -0.8606
      3 C3          2.3669    1.2876   -0.0136 C.ar      1 <0>         0.2992
      4 N1          2.3145   -0.0341   -0.0202 N.ar      1 <0>        -0.5747
      5 C4          1.1499   -0.6657   -0.0125 C.ar      1 <0>         0.6048
      6 N2          0.0021   -0.0041    0.0020 N.ar      1 <0>        -0.5583
      7 N3          1.1318   -2.0497   -0.0202 N.pl3     1 <0>        -0.5283
      8 N4         -0.0599   -2.7172   -0.0124 N.3       1 <0>        -0.5901
      9 S1          1.2077    3.7729    0.0102 S.o2      1 <0>         2.7135
     10 O1          2.4530    4.1656   -0.5503 O.2       1 <0>        -0.9445
     11 O2         -0.0374    4.1979   -0.5269 O.2       1 <0>        -0.9443
     12 N5          1.2289    4.2545    1.5945 N.pl3     1 <0>        -1.0040
     13 C5         -0.0188    4.4878    2.3412 C.3       1 <0>         0.1010
     14 C6         -0.0612    3.5106    3.5176 C.3       1 <0>         0.0919
     15 N6          1.2137    3.4943    4.2217 N.am      1 <0>        -0.7157
     16 C7          2.3764    3.8769    3.6918 C.2       1 <0>         0.5127
     17 O3          3.3850    3.7428    4.3518 O.2       1 <0>        -0.5423
     18 C8          2.4943    4.4607    2.3146 C.3       1 <0>         0.1112
     19 H1         -0.9546    1.8523    0.0256 H         1 <0>         0.1847
     20 H2          3.3193    1.7969   -0.0203 H         1 <0>         0.1852
     21 H3          1.9655   -2.5455   -0.0312 H         1 <0>         0.4233
     22 H4         -0.6400   -2.4305   -0.7866 H         1 <0>         0.3533
     23 H5          0.0850   -3.7158   -0.0195 H         1 <0>         0.3663
     24 H6         -0.0389    5.5122    2.7131 H         1 <0>         0.0941
     25 H7         -0.8753    4.3158    1.6892 H         1 <0>         0.1170
     26 H8         -0.8484    3.8138    4.2078 H         1 <0>         0.0959
     27 H9         -0.2779    2.5095    3.1448 H         1 <0>         0.0698
     28 H10         1.2174    3.1838    5.1407 H         1 <0>         0.4032
     29 H11         3.3045    3.9675    1.7777 H         1 <0>         0.1244
     30 H12         2.7012    5.5282    2.3908 H         1 <0>         0.1164
@<TRIPOS>BOND
     1    1    6 ar
     2    1    2 ar
     3    1   19 1
     4    2    3 ar
     5    2    9 1
     6    3    4 ar
     7    3   20 1
     8    4    5 ar
     9    5    6 ar
    10    5    7 1
    11    7    8 1
    12    7   21 1
    13    8   22 1
    14    8   23 1
    15    9   10 2
    16    9   11 2
    17    9   12 1
    18   12   18 1
    19   12   13 1
    20   13   14 1
    21   13   24 1
    22   13   25 1
    23   14   15 1
    24   14   26 1
    25   14   27 1
    26   15   16 am
    27   15   28 1
    28   16   17 2
    29   16   18 1
    30   18   29 1
    31   18   30 1
@<TRIPOS>MOLECULE
ZINC49035624
   39    39     0     0     0
SMALL
USER_CHARGES

@<TRIPOS>ATOM
      1 C1         -0.0187    1.5258    0.0104 C.3       1 <0>        -0.1621
      2 C2          0.0021   -0.0041    0.0020 C.3       1 <0>         0.1449
      3 H1         -1.0205   -0.3814    0.0098 H         1 <0>         0.1172
      4 C3          0.7074   -0.4901   -1.2379 C.2       1 <0>         0.5159
      5 O1          1.7039   -1.1744   -1.1398 O.2       1 <0>        -0.5295
      6 N1          0.2309   -0.1642   -2.4557 N.am      1 <0>        -0.7205
      7 C4          0.9167   -0.6367   -3.6611 C.3       1 <0>         0.1340
      8 H2          1.9917   -0.6599   -3.4825 H         1 <0>         0.0979
      9 C5          0.4262   -2.0439   -4.0094 C.3       1 <0>        -0.1287
     10 C6          1.1657   -2.5514   -5.2494 C.3       1 <0>        -0.1291
     11 C7          0.8635   -1.6272   -6.4332 C.3       1 <0>         0.1135
     12 N2          1.1978   -0.2477   -6.0536 N.pl3     1 <0>        -0.9974
     13 C8          0.6123    0.3097   -4.8266 C.3       1 <0>         0.1114
     14 S1          2.2161    0.6620   -6.9906 S.o2      1 <0>         2.6092
     15 O2          2.7876    1.6052   -6.0945 O.2       1 <0>        -0.9518
     16 O3          3.0336   -0.2859   -7.6632 O.2       1 <0>        -0.9499
     17 C9          1.1313    1.5040   -8.1758 C.3       1 <0>        -0.6723
     18 N3          0.7106   -0.4894    1.1889 N.am      1 <0>        -0.7302
     19 C10         0.0512   -0.6335    2.3554 C.2       1 <0>         0.7105
     20 O4         -1.1318   -0.3607    2.4228 O.2       1 <0>        -0.5947
     21 N4          0.7031   -1.0799    3.4473 N.am      1 <0>        -0.8643
     22 H3          1.0039    1.9031    0.0027 H         1 <0>         0.0651
     23 H4         -0.5459    1.8868   -0.8726 H         1 <0>         0.0723
     24 H5         -0.5289    1.8773    0.9072 H         1 <0>         0.0775
     25 H6         -0.5660    0.3831   -2.5342 H         1 <0>         0.4040
     26 H7          0.6199   -2.7137   -3.1715 H         1 <0>         0.0729
     27 H8         -0.6446   -2.0156   -4.2114 H         1 <0>         0.0686
     28 H9          2.2385   -2.5565   -5.0565 H         1 <0>         0.0731
     29 H10         0.8328   -3.5626   -5.4831 H         1 <0>         0.0821
     30 H11         1.4642   -1.9255   -7.2923 H         1 <0>         0.0987
     31 H12        -0.1951   -1.6905   -6.6852 H         1 <0>         0.0728
     32 H13        -0.4668    0.4048   -4.9478 H         1 <0>         0.0772
     33 H14         1.0472    1.2887   -4.6256 H         1 <0>         0.1024
     34 H15         0.4167    2.1256   -7.6362 H         1 <0>         0.1277
     35 H16         1.7312    2.1300   -8.8363 H         1 <0>         0.1296
     36 H17         0.5940    0.7625   -8.7670 H         1 <0>         0.1284
     37 H18         1.6544   -0.7070    1.1351 H         1 <0>         0.4070
     38 H19         1.6468   -1.2976    3.3936 H         1 <0>         0.3991
     39 H20         0.2285   -1.1836    4.2869 H         1 <0>         0.4172
@<TRIPOS>BOND
     1    1    2 1
     2    1   22 1
     3    1   23 1
     4    1   24 1
     5    2    3 1
     6    2    4 1
     7    2   18 1
     8    4    5 2
     9    4    6 am
    10    6    7 1
    11    6   25 1
    12    7    8 1
    13    7   13 1
    14    7    9 1
    15    9   10 1
    16    9   26 1
    17    9   27 1
    18   10   11 1
    19   10   28 1
    20   10   29 1
    21   11   12 1
    22   11   30 1
    23   11   31 1
    24   12   13 1
    25   12   14 1
    26   13   32 1
    27   13   33 1
    28   14   15 2
    29   14   16 2
    30   14   17 1
    31   17   34 1
    32   17   35 1
    33   17   36 1
    34   18   19 am
    35   18   37 1
    36   19   20 2
    37   19   21 am
    38   21   38 1
    39   21   39 1
@<TRIPOS>MOLECULE
ZINC51104671
   47    48     0     0     0
SMALL
USER_CHARGES

@<TRIPOS>ATOM
      1 C1         -0.0187    1.5258    0.0104 C.3       1 <0>        -0.1907
      2 C2          0.0021   -0.0041    0.0020 C.3       1 <0>         0.0675
      3 H1          0.5293   -0.3651    0.8851 H         1 <0>         0.1201
      4 C3          0.7074   -0.4901   -1.2379 C.2       1 <0>         0.5233
      5 O1          0.1202   -1.1907   -2.0341 O.2       1 <0>        -0.4447
      6 N1          1.9912   -0.1458   -1.4616 N.am      1 <0>        -0.6904
      7 C4          2.6220   -0.5804   -2.5704 C.2       1 <0>         0.6940
      8 O2          2.0333   -1.2829   -3.3687 O.2       1 <0>        -0.5298
      9 N2          3.9057   -0.2362   -2.7941 N.am      1 <0>        -0.7314
     10 C5          4.5914   -0.7086   -3.9995 C.3       1 <0>         0.1262
     11 C6          6.0268   -0.1791   -4.0103 C.3       1 <0>         0.0679
     12 H2          6.0214    0.9056   -3.9026 H         1 <0>         0.0893
     13 C7          6.7195   -0.5705   -5.3333 C.3       1 <0>        -0.1485
     14 C8          8.1548   -0.9286   -4.8605 C.3       1 <0>        -0.1564
     15 C9          7.8612   -1.5439   -3.4691 C.3       1 <0>         0.0486
     16 O3          6.7709   -0.7701   -2.9386 O.3       1 <0>        -0.3770
     17 N3         -1.3761   -0.5125    0.0124 N.3       1 <0>        -0.5119
     18 C10        -2.1288   -0.0184   -1.1497 C.3       1 <0>        -0.0017
     19 C11        -3.5371   -0.6186   -1.1315 C.3       1 <0>         0.0658
     20 O4         -4.1741   -0.2895    0.1059 O.3       1 <0>        -0.3564
     21 C12        -3.4682   -0.7562    1.2588 C.3       1 <0>         0.0773
     22 H3         -3.4014   -1.8437    1.2292 H         1 <0>         0.0964
     23 C13        -2.0592   -0.1574    1.2649 C.3       1 <0>         0.0275
     24 C14        -4.2020   -0.3308    2.5045 C.2       1 <0>         0.5248
     25 O5         -5.1774    0.3849    2.4191 O.2       1 <0>        -0.5158
     26 N4         -3.7744   -0.7458    3.7133 N.am      1 <0>        -0.8514
     27 H4          1.0039    1.9031    0.0027 H         1 <0>         0.0723
     28 H5         -0.5459    1.8868   -0.8726 H         1 <0>         0.0705
     29 H6         -0.5289    1.8773    0.9072 H         1 <0>         0.0771
     30 H7          2.4610    0.4148   -0.8245 H         1 <0>         0.4091
     31 H8          4.3756    0.3244   -2.1571 H         1 <0>         0.4018
     32 H9          4.6062   -1.7985   -4.0055 H         1 <0>         0.0750
     33 H10         4.0642   -0.3476   -4.8825 H         1 <0>         0.0810
     34 H11         6.2329   -1.4350   -5.7850 H         1 <0>         0.0840
     35 H12         6.7377    0.2713   -6.0255 H         1 <0>         0.0885
     36 H13         8.6160   -1.6601   -5.5241 H         1 <0>         0.0870
     37 H14         8.7736   -0.0356   -4.7725 H         1 <0>         0.0806
     38 H15         7.5696   -2.5891   -3.5715 H         1 <0>         0.0630
     39 H16         8.7356   -1.4556   -2.8243 H         1 <0>         0.0881
     40 H17        -2.1957    1.0686   -1.1046 H         1 <0>         0.0483
     41 H18        -1.6187   -0.3145   -2.0664 H         1 <0>         0.1151
     42 H19        -4.1172   -0.2107   -1.9593 H         1 <0>         0.1075
     43 H20        -3.4723   -1.7021   -1.2307 H         1 <0>         0.0665
     44 H21        -1.4984   -0.5550    2.1107 H         1 <0>         0.0939
     45 H22        -2.1251    0.9274    1.3486 H         1 <0>         0.0578
     46 H23        -2.9943   -1.3182    3.7816 H         1 <0>         0.4026
     47 H24        -4.2467   -0.4720    4.5151 H         1 <0>         0.4079
@<TRIPOS>BOND
     1    1    2 1
     2    1   27 1
     3    1   28 1
     4    1   29 1
     5    2    3 1
     6    2    4 1
     7    2   17 1
     8    4    5 2
     9    4    6 am
    10    6    7 am
    11    6   30 1
    12    7    8 2
    13    7    9 am
    14    9   10 1
    15    9   31 1
    16   10   11 1
    17   10   32 1
    18   10   33 1
    19   11   12 1
    20   11   16 1
    21   11   13 1
    22   13   14 1
    23   13   34 1
    24   13   35 1
    25   14   15 1
    26   14   36 1
    27   14   37 1
    28   15   16 1
    29   15   38 1
    30   15   39 1
    31   17   23 1
    32   17   18 1
    33   18   19 1
    34   18   40 1
    35   18   41 1
    36   19   20 1
    37   19   42 1
    38   19   43 1
    39   20   21 1
    40   21   22 1
    41   21   23 1
    42   21   24 1
    43   23   44 1
    44   23   45 1
    45   24   25 2
    46   24   26 am
    47   26   46 1
    48   26   47 1
@<TRIPOS>MOLECULE
ZINC04554508
   22    23     0     0     0
SMALL
USER_CHARGES
3-(2-hydroxyethylidene)-6-oxo-2-oxa-5-azabicyclo[3.2.0]heptane-4-carboxylic acid
@<TRIPOS>ATOM
      1 C1          2.5932   -0.5340   -1.2834 C.3       1 <0>        -0.1936
      2 C2          2.8939    0.9566   -1.3491 C.3       1 <0>         0.2129
      3 H1          3.9430    1.2033   -1.5119 H         1 <0>         0.1379
      4 N1          2.4414    1.0536    0.0441 N.am      1 <0>        -0.5346
      5 C3          2.2202   -0.2636    0.1433 C.2       1 <0>         0.5235
      6 O1          1.8526   -0.9762    1.0533 O.2       1 <0>        -0.4562
      7 C4          1.2804    1.9752    0.0004 C.3       1 <0>         0.0439
      8 H2          1.3144    2.6790    0.8321 H         1 <0>         0.1163
      9 C5          1.4697    2.6992   -1.3282 C.2       1 <0>         0.0762
     10 C6          1.2135    3.9588   -1.6151 C.2       1 <0>        -0.1709
     11 C7          0.6598    4.8756   -0.5549 C.3       1 <0>         0.1235
     12 O2          1.3588    6.1214   -0.5901 O.3       1 <0>        -0.5737
     13 O3          1.9753    1.7170   -2.1517 O.3       1 <0>        -0.3071
     14 C8         -0.0143    1.2041    0.0087 C.2       1 <0>         0.4629
     15 O4         -0.0995    0.1601   -0.5937 O.co2     1 <0>        -0.6079
     16 H3          3.4723   -1.1680   -1.3982 H         1 <0>         0.1096
     17 H4          1.7562   -0.8466   -1.9078 H         1 <0>         0.1373
     18 H5          1.4001    4.3347   -2.6102 H         1 <0>         0.1323
     19 H6         -0.4002    5.0482   -0.7413 H         1 <0>         0.0627
     20 H7          0.7862    4.4156    0.4252 H         1 <0>         0.0602
     21 H8          1.0542    6.7620    0.0671 H         1 <0>         0.3797
     22 O5         -1.0745    1.6797    0.6806 O.co2     1 <0>        -0.7351
@<TRIPOS>BOND
     1    1    5 1
     2    1    2 1
     3    1   16 1
     4    1   17 1
     5    2    3 1
     6    2   13 1
     7    2    4 1
     8    4    5 am
     9    4    7 1
    10    5    6 2
    11    7    8 1
    12    7    9 1
    13    7   14 1
    14    9   10 2
    15    9   13 1
    16   10   11 1
    17   10   18 1
    18   11   12 1
    19   11   19 1
    20   11   20 1
    21   12   21 1
    22   14   15 2
    23   14   22 1
@<TRIPOS>MOLECULE
ZINC21957760
   28    29     0     0     0
SMALL
USER_CHARGES
(2R,4R)-4-hydroxy-1-(pyridine-4-carbonyl)pyrrolidine-2-carboxylic acid
@<TRIPOS>ATOM
      1 C1          3.5691   -0.8506    2.3311 C.ar      1 <0>        -0.1359
      2 C2          4.7258   -1.1536    3.0231 C.ar      1 <0>         0.1019
      3 N1          4.8961   -2.3408    3.5699 N.ar      1 <0>        -0.4774
      4 C3          3.9803   -3.2855    3.4899 C.ar      1 <0>         0.0927
      5 C4          2.7913   -3.0662    2.8217 C.ar      1 <0>        -0.1152
      6 C5          2.5680   -1.8210    2.2263 C.ar      1 <0>        -0.0589
      7 C6          1.3082   -1.5397    1.4993 C.2       1 <0>         0.5896
      8 O1          0.2436   -1.8859    1.9719 O.2       1 <0>        -0.5494
      9 N2          1.3429   -0.8998    0.3136 N.am      1 <0>        -0.5837
     10 C7          0.1718   -0.5674   -0.5179 C.3       1 <0>         0.1197
     11 C8          0.6266    0.6363   -1.3804 C.3       1 <0>         0.1022
     12 H1          0.4472    1.6341   -0.9534 H         1 <0>         0.0711
     13 C9          2.1059    0.2696   -1.6715 C.3       1 <0>        -0.1303
     14 C10         2.5549   -0.4184   -0.3652 C.3       1 <0>         0.0759
     15 H2          3.0940    0.2632    0.3092 H         1 <0>         0.0860
     16 C11         3.4602   -1.5805   -0.6830 C.2       1 <0>         0.4580
     17 O2          3.0185   -2.7051   -0.6936 O.co2     1 <0>        -0.6203
     18 O3          4.7572   -1.3663   -0.9542 O.co2     1 <0>        -0.7562
     19 O4         -0.1295    0.7141   -2.5905 O.3       1 <0>        -0.6019
     20 H3          3.4384    0.1226    1.8814 H         1 <0>         0.1373
     21 H4          5.5030   -0.4091    3.1134 H         1 <0>         0.1580
     22 H5          4.1619   -4.2440    3.9534 H         1 <0>         0.1582
     23 H6          2.0453   -3.8447    2.7604 H         1 <0>         0.1380
     24 H7         -0.0955   -1.4354   -1.1385 H         1 <0>         0.0794
     25 H8         -0.6766   -0.3058    0.1315 H         1 <0>         0.0827
     26 H9          2.1528   -0.4020   -2.5414 H         1 <0>         0.0871
     27 H10         2.6757    1.1860   -1.8847 H         1 <0>         0.0828
     28 H11         0.0726    1.5171   -3.3147 H         1 <0>         0.4086
@<TRIPOS>BOND
     1    1    6 ar
     2    1    2 ar
     3    1   20 1
     4    2    3 ar
     5    2   21 1
     6    3    4 ar
     7    4    5 ar
     8    4   22 1
     9    5    6 ar
    10    5   23 1
    11    6    7 1
    12    7    8 2
    13    7    9 am
    14    9   14 1
    15    9   10 1
    16   10   11 1
    17   10   24 1
    18   10   25 1
    19   11   12 1
    20   11   13 1
    21   11   19 1
    22   13   14 1
    23   13   26 1
    24   13   27 1
    25   14   15 1
    26   14   16 1
    27   16   17 2
    28   16   18 1
    29   19   28 1
@<TRIPOS>MOLECULE
ZINC37449836
   27    27     0     0     0
SMALL
USER_CHARGES

@<TRIPOS>ATOM
      1 C1         -0.0189    1.5390    0.0105 C.3       1 <0>        -0.0987
      2 C2          1.4884    1.9071   -0.0019 C.3       1 <0>         0.0864
      3 H1          1.6475    2.8874   -0.4510 H         1 <0>         0.0771
      4 C3          2.0751    0.7854   -0.8949 C.3       1 <0>         0.0710
      5 N1          1.3027   -0.4200   -0.5430 N.am      1 <0>        -0.5815
      6 C4          0.0021   -0.0041    0.0020 C.3       1 <0>         0.0726
      7 H2         -0.1121   -0.3819    1.0180 H         1 <0>         0.0715
      8 C5         -1.1100   -0.5269   -0.8703 C.2       1 <0>         0.4944
      9 O1         -0.8496   -1.0645   -1.9332 O.co2     1 <0>        -0.6773
     10 O2         -2.2701   -0.4123   -0.5132 O.co2     1 <0>        -0.6982
     11 C6          1.7195   -1.6925   -0.6962 C.2       1 <0>         0.5487
     12 O3          0.9967   -2.6106   -0.3714 O.2       1 <0>        -0.5069
     13 C7          3.0836   -1.9745   -1.2711 C.3       1 <0>        -0.1194
     14 S1          3.3479   -3.7674   -1.3496 S.3       1 <0>        -0.1315
     15 C8          5.0111   -3.9355   -2.0539 C.3       1 <0>        -0.0301
     16 C9          5.3521   -5.3626   -2.1720 C.1       1 <0>         0.2271
     17 N2          5.6152   -6.4639   -2.2631 N.1       1 <0>        -0.4136
     18 O4          2.0393    1.8548    1.3156 O.3       1 <0>        -0.5528
     19 H3         -0.4998    1.9132    0.9143 H         1 <0>         0.0862
     20 H4         -0.5169    1.9228   -0.8798 H         1 <0>         0.0874
     21 H5          1.9388    1.0291   -1.9485 H         1 <0>         0.0755
     22 H6          3.1318    0.6372   -0.6725 H         1 <0>         0.0710
     23 H7          3.1493   -1.5533   -2.2743 H         1 <0>         0.1114
     24 H8          3.8459   -1.5223   -0.6366 H         1 <0>         0.1073
     25 H9          5.0363   -3.4731   -3.0407 H         1 <0>         0.1260
     26 H10         5.7329   -3.4421   -1.4030 H         1 <0>         0.1246
     27 H11         2.9794    2.0773    1.3579 H         1 <0>         0.3719
@<TRIPOS>BOND
     1    1    6 1
     2    1    2 1
     3    1   19 1
     4    1   20 1
     5    2    3 1
     6    2    4 1
     7    2   18 1
     8    4    5 1
     9    4   21 1
    10    4   22 1
    11    5    6 1
    12    5   11 am
    13    6    7 1
    14    6    8 1
    15    8    9 2
    16    8   10 1
    17   11   12 2
    18   11   13 1
    19   13   14 1
    20   13   23 1
    21   13   24 1
    22   14   15 1
    23   15   16 1
    24   15   25 1
    25   15   26 1
    26   16   17 3
    27   18   27 1
@<TRIPOS>MOLECULE
ZINC40726720
   28    29     0     0     0
SMALL
USER_CHARGES

@<TRIPOS>ATOM
      1 C1         -0.0184    1.5028    0.0103 C.3       1 <0>        -0.0992
      2 C2          0.0021   -0.0041    0.0020 C.ar      1 <0>         0.1887
      3 C3          0.0060   -0.6964   -1.1931 C.ar      1 <0>        -0.2712
      4 C4          0.0256   -2.0919   -1.1504 C.ar      1 <0>         0.4751
      5 N1          0.0398   -2.6994    0.0326 N.ar      1 <0>        -0.5933
      6 C5          0.0354   -1.9987    1.1483 C.ar      1 <0>         0.3287
      7 N2          0.0221   -0.6809    1.1415 N.ar      1 <0>        -0.5795
      8 N3          0.0298   -2.8319   -2.3217 N.pl3     1 <0>        -0.5623
      9 C6         -0.0610   -4.3006   -2.4104 C.3       1 <0>         0.0910
     10 C7         -0.6311   -4.5780   -3.8238 C.3       1 <0>         0.0855
     11 H1         -0.3454   -5.5705   -4.1724 H         1 <0>         0.0782
     12 C8          0.0635   -3.4727   -4.6623 C.3       1 <0>        -0.1004
     13 C9          0.1193   -2.2820   -3.6823 C.3       1 <0>         0.0731
     14 H2         -0.7182   -1.6089   -3.8658 H         1 <0>         0.0706
     15 C10         1.4215   -1.5427   -3.8517 C.2       1 <0>         0.4883
     16 O1          2.4061   -1.8902   -3.2223 O.co2     1 <0>        -0.6778
     17 O2          1.4903   -0.5971   -4.6183 O.co2     1 <0>        -0.6918
     18 O3         -2.0512   -4.4204   -3.8433 O.3       1 <0>        -0.5557
     19 H3          1.0042    1.8801    0.0026 H         1 <0>         0.0801
     20 H4         -0.5455    1.8639   -0.8728 H         1 <0>         0.0749
     21 H5         -0.5286    1.8543    0.9071 H         1 <0>         0.0752
     22 H6         -0.0062   -0.1716   -2.1369 H         1 <0>         0.1374
     23 H7          0.0472   -2.5187    2.0948 H         1 <0>         0.1864
     24 H8          0.9270   -4.7489   -2.3051 H         1 <0>         0.0723
     25 H9         -0.7366   -4.6857   -1.6465 H         1 <0>         0.0751
     26 H10         1.0666   -3.7835   -4.9547 H         1 <0>         0.0898
     27 H11        -0.5339   -3.2205   -5.5384 H         1 <0>         0.0868
     28 H12        -2.5225   -5.0277   -3.2566 H         1 <0>         0.3740
@<TRIPOS>BOND
     1    1    2 1
     2    1   19 1
     3    1   20 1
     4    1   21 1
     5    2    7 ar
     6    2    3 ar
     7    3    4 ar
     8    3   22 1
     9    4    5 ar
    10    4    8 1
    11    5    6 ar
    12    6    7 ar
    13    6   23 1
    14    8   13 1
    15    8    9 1
    16    9   10 1
    17    9   24 1
    18    9   25 1
    19   10   11 1
    20   10   12 1
    21   10   18 1
    22   12   13 1
    23   12   26 1
    24   12   27 1
    25   13   14 1
    26   13   15 1
    27   15   16 2
    28   15   17 1
    29   18   28 1
@<TRIPOS>MOLECULE
ZINC50959068
   33    34     0     0     0
SMALL
USER_CHARGES

@<TRIPOS>ATOM
      1 C1          0.1357    1.5318   -0.0826 C.3       1 <0>        -0.1189
      2 C2          1.5680    2.0485    0.0845 C.3       1 <0>        -0.1576
      3 C3          2.1655    1.4669    1.3684 C.3       1 <0>         0.0579
      4 O1          2.1248    0.0398    1.3072 O.3       1 <0>        -0.3511
      5 C4          0.8071   -0.5023    1.1985 C.3       1 <0>         0.0835
      6 H1          0.2115   -0.1844    2.0543 H         1 <0>         0.0776
      7 C5          0.1550    0.0002   -0.0922 C.3       1 <0>        -0.1474
      8 C6          0.8834   -2.0071    1.1705 C.2       1 <0>         0.5379
      9 O2          1.9374   -2.5564    0.9291 O.2       1 <0>        -0.5113
     10 N1         -0.2196   -2.7424    1.4138 N.am      1 <0>        -0.5863
     11 C7         -1.5796   -2.2104    1.6159 C.3       1 <0>         0.0676
     12 C8         -2.5230   -3.3792    1.2369 C.3       1 <0>         0.0903
     13 H2         -2.6514   -3.4430    0.1564 H         1 <0>         0.0726
     14 C9         -1.7358   -4.6025    1.7767 C.3       1 <0>        -0.1001
     15 C10        -0.2669   -4.2084    1.5152 C.3       1 <0>         0.0695
     16 H3          0.0786   -4.6558    0.5832 H         1 <0>         0.0729
     17 C11         0.5966   -4.6711    2.6603 C.2       1 <0>         0.4985
     18 O3          0.7533   -3.9543    3.6340 O.co2     1 <0>        -0.6834
     19 O4          1.1386   -5.7622    2.6129 O.co2     1 <0>        -0.6930
     20 O5         -3.7859   -3.2515    1.8933 O.3       1 <0>        -0.5537
     21 H4         -0.4779    1.8835    0.7469 H         1 <0>         0.0654
     22 H5         -0.2764    1.8972   -1.0232 H         1 <0>         0.0698
     23 H6          2.1691    1.7382   -0.7702 H         1 <0>         0.0727
     24 H7          1.5576    3.1366    0.1479 H         1 <0>         0.0729
     25 H8          3.1992    1.7971    1.4703 H         1 <0>         0.0968
     26 H9          1.5877    1.8106    2.2264 H         1 <0>         0.0504
     27 H10        -0.8659   -0.3766   -0.1552 H         1 <0>         0.0785
     28 H11         0.7276   -0.3515   -0.9504 H         1 <0>         0.0783
     29 H12        -1.7254   -1.9280    2.6586 H         1 <0>         0.0769
     30 H13        -1.7534   -1.3554    0.9626 H         1 <0>         0.0716
     31 H14        -1.9185   -4.7388    2.8426 H         1 <0>         0.0855
     32 H15        -1.9956   -5.5037    1.2214 H         1 <0>         0.0819
     33 H16        -4.2712   -2.4485    1.6596 H         1 <0>         0.3738
@<TRIPOS>BOND
     1    1    7 1
     2    1    2 1
     3    1   21 1
     4    1   22 1
     5    2    3 1
     6    2   23 1
     7    2   24 1
     8    3    4 1
     9    3   25 1
    10    3   26 1
    11    4    5 1
    12    5    6 1
    13    5    7 1
    14    5    8 1
    15    7   27 1
    16    7   28 1
    17    8    9 2
    18    8   10 am
    19   10   15 1
    20   10   11 1
    21   11   12 1
    22   11   29 1
    23   11   30 1
    24   12   13 1
    25   12   14 1
    26   12   20 1
    27   14   15 1
    28   14   31 1
    29   14   32 1
    30   15   16 1
    31   15   17 1
    32   17   18 2
    33   17   19 1
    34   20   33 1
@<TRIPOS>MOLECULE
ZINC17379599
   20    20     0     0     0
SMALL
USER_CHARGES

@<TRIPOS>ATOM
      1 C1         -0.0178    1.4608    0.0101 C.3       1 <0>         0.0996
      2 N1          0.0021   -0.0041    0.0020 N.am      1 <0>        -0.5451
      3 C2          0.0059   -0.6990   -1.2059 C.2       1 <0>         0.4725
      4 N2         -0.4546   -0.1831   -2.3081 N.2       1 <0>        -0.7177
      5 C3          0.5779   -2.0815   -1.1453 C.2       1 <0>        -0.1686
      6 N3          1.2105   -2.6252   -2.1456 N.2       1 <0>        -0.2211
      7 O1          1.7289   -3.9374   -2.0263 O.3       1 <0>        -0.4845
      8 C4          0.3657   -2.7871    0.1540 C.2       1 <0>         0.5454
      9 O2          0.4078   -3.9988    0.2317 O.2       1 <0>        -0.4724
     10 N4          0.1254   -2.0190    1.2389 N.am      1 <0>        -0.5752
     11 C5          0.0223   -0.6867    1.1591 C.2       1 <0>         0.7220
     12 O3         -0.0630   -0.0575    2.1954 O.2       1 <0>        -0.5659
     13 C6         -0.0217   -2.6649    2.5456 C.3       1 <0>         0.0833
     14 H1          1.0048    1.8381    0.0023 H         1 <0>         0.0597
     15 H2         -0.5450    1.8219   -0.8730 H         1 <0>         0.0914
     16 H3         -0.5280    1.8123    0.9069 H         1 <0>         0.0831
     17 H4         -0.4350   -0.6981   -3.1299 H         1 <0>         0.3608
     18 H5          0.0938   -3.7429    2.4331 H         1 <0>         0.0941
     19 H6          0.7416   -2.2868    3.2257 H         1 <0>         0.0711
     20 H7         -1.0097   -2.4455    2.9502 H         1 <0>         0.0677
@<TRIPOS>BOND
     1    1    2 1
     2    1   14 1
     3    1   15 1
     4    1   16 1
     5    2   11 am
     6    2    3 1
     7    3    4 2
     8    3    5 1
     9    4   17 1
    10    5    6 2
    11    5    8 1
    12    6    7 1
    13    8    9 2
    14    8   10 am
    15   10   11 am
    16   10   13 1
    17   11   12 2
    18   13   18 1
    19   13   19 1
    20   13   20 1
@<TRIPOS>MOLECULE
ZINC13625977
   44    45     0     0     0
SMALL
USER_CHARGES
N-[[4-(dimethylcarbamoyl)phenyl]carbamothioyl]-3,5-dinitro-benzamide
@<TRIPOS>ATOM
      1 C1         -9.2879    4.5961   -0.4890 C.3       1 <0>         0.0841
      2 N1         -7.9989    3.9116   -0.6157 N.am      1 <0>        -0.6168
      3 C2         -7.4813    3.5638   -1.9413 C.3       1 <0>         0.0698
      4 C3         -7.2892    3.6018    0.4874 C.2       1 <0>         0.5570
      5 O1         -7.6805    3.9581    1.5821 O.2       1 <0>        -0.5287
      6 C4         -6.0372    2.8300    0.3666 C.ar      1 <0>        -0.1204
      7 C5         -5.9181    1.8367   -0.6094 C.ar      1 <0>        -0.0857
      8 C6         -4.7488    1.1189   -0.7197 C.ar      1 <0>        -0.1223
      9 C7         -3.6858    1.3813    0.1393 C.ar      1 <0>         0.1419
     10 C8         -3.8030    2.3660    1.1156 C.ar      1 <0>        -0.0772
     11 C9         -4.9677    3.0910    1.2278 C.ar      1 <0>        -0.0517
     12 N2         -2.5036    0.6525    0.0252 N.pl3     1 <0>        -0.6188
     13 C10        -1.3157    1.2891    0.0380 C.2       1 <0>         0.5044
     14 S1         -1.2615    2.9999    0.0683 S.2       1 <0>        -0.4540
     15 N3         -0.1703    0.5787    0.0270 N.am      1 <0>        -0.6393
     16 C11         1.0176    1.2153    0.0342 C.2       1 <0>         0.5432
     17 O2          1.0560    2.4298    0.0557 O.2       1 <0>        -0.3739
     18 C12         2.2733    0.4366    0.0160 C.ar      1 <0>        -0.1239
     19 C13         2.2328   -0.9588   -0.0028 C.ar      1 <0>         0.0135
     20 C14         3.4088   -1.6796   -0.0251 C.ar      1 <0>        -0.0428
     21 C15         4.6266   -1.0228   -0.0172 C.ar      1 <0>         0.0304
     22 C16         4.6740    0.3598    0.0068 C.ar      1 <0>        -0.0412
     23 C17         3.5055    1.0929    0.0234 C.ar      1 <0>         0.0515
     24 N4          5.9813    1.0539    0.0141 N.pl3     1 <0>         0.0214
     25 O3          6.0246    2.2710    0.0348 O.2       1 <0>        -0.1223
     26 O4          7.0139    0.4080   -0.0006 O.3       1 <0>        -0.1282
     27 N5          3.3678   -3.1590   -0.0508 N.pl3     1 <0>         0.0236
     28 O5          4.4054   -3.7968   -0.0649 O.2       1 <0>        -0.1242
     29 O6          2.2965   -3.7385   -0.0577 O.3       1 <0>        -0.1350
     30 H1         -9.1303    5.6744   -0.5096 H         1 <0>         0.0584
     31 H2         -9.9354    4.3077   -1.3171 H         1 <0>         0.0729
     32 H3         -9.7573    4.3154    0.4539 H         1 <0>         0.0783
     33 H4         -7.8497    2.5789   -2.2283 H         1 <0>         0.0612
     34 H5         -7.8174    4.3034   -2.6681 H         1 <0>         0.0748
     35 H6         -6.3917    3.5504   -1.9139 H         1 <0>         0.0816
     36 H7         -6.7425    1.6329   -1.2766 H         1 <0>         0.1429
     37 H8         -4.6560    0.3516   -1.4740 H         1 <0>         0.1344
     38 H9         -2.9777    2.5643    1.7834 H         1 <0>         0.1420
     39 H10        -5.0564    3.8581    1.9829 H         1 <0>         0.1409
     40 H11        -2.5356   -0.3129   -0.0634 H         1 <0>         0.4111
     41 H12        -0.2010   -0.3907    0.0099 H         1 <0>         0.4106
     42 H13         1.2829   -1.4727   -0.0045 H         1 <0>         0.1715
     43 H14         5.5444   -1.5920   -0.0301 H         1 <0>         0.1928
     44 H15         3.5439    2.1721    0.0417 H         1 <0>         0.1920
@<TRIPOS>BOND
     1    1    2 1
     2    1   30 1
     3    1   31 1
     4    1   32 1
     5    2    3 1
     6    2    4 am
     7    3   33 1
     8    3   34 1
     9    3   35 1
    10    4    5 2
    11    4    6 1
    12    6   11 ar
    13    6    7 ar
    14    7    8 ar
    15    7   36 1
    16    8    9 ar
    17    8   37 1
    18    9   10 ar
    19    9   12 1
    20   10   11 ar
    21   10   38 1
    22   11   39 1
    23   12   13 1
    24   12   40 1
    25   13   14 2
    26   13   15 1
    27   15   16 am
    28   15   41 1
    29   16   17 2
    30   16   18 1
    31   18   23 ar
    32   18   19 ar
    33   19   20 ar
    34   19   42 1
    35   20   21 ar
    36   20   27 1
    37   21   22 ar
    38   21   43 1
    39   22   23 ar
    40   22   24 1
    41   23   44 1
    42   24   25 2
    43   24   26 1
    44   27   28 2
    45   27   29 1
@<TRIPOS>MOLECULE
ZINC38522045
   54    57     0     0     0
SMALL
USER_CHARGES

@<TRIPOS>ATOM
      1 C1         -0.6148    1.5053   -2.1661 C.3       1 <0>        -0.1719
      2 C2         -0.6023   -0.0017   -2.1700 C.2       1 <0>         0.5122
      3 O1         -1.1353   -0.6103   -3.0736 O.2       1 <0>        -0.5188
      4 N1          0.0013   -0.6731   -1.1693 N.am      1 <0>        -0.6787
      5 C3         -0.0699   -2.0697   -1.1212 C.ar      1 <0>         0.2027
      6 C4         -0.1511   -2.7205    0.1029 C.ar      1 <0>        -0.1661
      7 C5         -0.2212   -4.0992    0.1471 C.ar      1 <0>         0.0035
      8 C6         -0.2107   -4.8314   -1.0259 C.ar      1 <0>        -0.6957
      9 C7         -0.1295   -4.1864   -2.2464 C.ar      1 <0>        -0.0018
     10 C8         -0.0654   -2.8077   -2.2976 C.ar      1 <0>        -0.1433
     11 S1         -0.3003   -6.5901   -0.9653 S.o2      1 <0>         2.6999
     12 O2          0.2761   -7.0680   -2.1730 O.2       1 <0>        -0.9511
     13 O3          0.1813   -6.9774    0.3142 O.2       1 <0>        -0.9526
     14 N2         -1.9040   -7.0005   -1.0115 N.pl3     1 <0>        -1.1140
     15 C9         -2.7018   -6.7047   -2.2041 C.3       1 <0>         0.1007
     16 C10        -4.0101   -7.4962   -2.1517 C.3       1 <0>         0.1371
     17 N3         -4.8078   -7.2005   -3.3443 N.pl3     1 <0>        -0.3803
     18 C11        -5.7242   -6.1984   -3.4641 C.ar      1 <0>         0.3482
     19 C12        -6.2450   -6.2848   -4.7701 C.ar      1 <0>        -0.2791
     20 C13        -5.5995   -7.3699   -5.4016 C.2       1 <0>         0.1128
     21 N4         -4.7558   -7.8949   -4.5595 N.2       1 <0>        -0.2342
     22 C14        -7.2250   -5.3521   -5.1605 C.ar      1 <0>         0.5208
     23 N5         -7.6113   -4.4360   -4.2792 N.ar      1 <0>        -0.5604
     24 C15        -7.0938   -4.3941   -3.0642 C.ar      1 <0>         0.3595
     25 N6         -6.1766   -5.2426   -2.6542 N.ar      1 <0>        -0.5387
     26 N7         -7.7709   -5.3884   -6.4286 N.pl3     1 <0>        -0.6677
     27 C16        -9.0372   -6.0917   -6.6883 C.3       1 <0>         0.1145
     28 C17        -9.9708   -5.1420   -7.4475 C.3       1 <0>         0.0455
     29 O4         -9.2865   -4.6235   -8.5906 O.3       1 <0>        -0.3785
     30 C18        -8.1316   -3.8415   -8.2766 C.3       1 <0>         0.0460
     31 C19        -7.1067   -4.7198   -7.5587 C.3       1 <0>         0.1138
     32 H1         -1.5003    1.8599   -1.6387 H         1 <0>         0.1013
     33 H2          0.2794    1.8748   -1.6641 H         1 <0>         0.0856
     34 H3         -0.6325    1.8711   -3.1927 H         1 <0>         0.1009
     35 H4          0.4851   -0.1882   -0.4825 H         1 <0>         0.4172
     36 H5         -0.1589   -2.1493    1.0194 H         1 <0>         0.1383
     37 H6         -0.2840   -4.6059    1.0987 H         1 <0>         0.1463
     38 H7         -0.1212   -4.7611   -3.1608 H         1 <0>         0.1426
     39 H8         -0.0072   -2.3042   -3.2513 H         1 <0>         0.1488
     40 H9         -2.3152   -7.4367   -0.2488 H         1 <0>         0.4216
     41 H10        -2.9235   -5.6380   -2.2376 H         1 <0>         0.0737
     42 H11        -2.1415   -6.9875   -3.0953 H         1 <0>         0.0917
     43 H12        -3.7883   -8.5629   -2.1182 H         1 <0>         0.1103
     44 H13        -4.5704   -7.2134   -1.2605 H         1 <0>         0.1078
     45 H14        -5.7727   -7.7052   -6.4135 H         1 <0>         0.2008
     46 H15        -7.4373   -3.6319   -2.3806 H         1 <0>         0.2057
     47 H16        -8.8470   -6.9795   -7.2914 H         1 <0>         0.0716
     48 H17        -9.4970   -6.3808   -5.7433 H         1 <0>         0.0790
     49 H18       -10.8588   -5.6854   -7.7703 H         1 <0>         0.1030
     50 H19       -10.2634   -4.3199   -6.7944 H         1 <0>         0.0579
     51 H20        -7.6966   -3.4492   -9.1958 H         1 <0>         0.1040
     52 H21        -8.4176   -3.0146   -7.6265 H         1 <0>         0.0568
     53 H22        -6.2888   -4.1009   -7.1898 H         1 <0>         0.0791
     54 H23        -6.7189   -5.4671   -8.2509 H         1 <0>         0.0716
@<TRIPOS>BOND
     1    1    2 1
     2    1   32 1
     3    1   33 1
     4    1   34 1
     5    2    3 2
     6    2    4 am
     7    4    5 1
     8    4   35 1
     9    5   10 ar
    10    5    6 ar
    11    6    7 ar
    12    6   36 1
    13    7    8 ar
    14    7   37 1
    15    8    9 ar
    16    8   11 1
    17    9   10 ar
    18    9   38 1
    19   10   39 1
    20   11   12 2
    21   11   13 2
    22   11   14 1
    23   14   15 1
    24   14   40 1
    25   15   16 1
    26   15   41 1
    27   15   42 1
    28   16   17 1
    29   16   43 1
    30   16   44 1
    31   17   21 1
    32   17   18 1
    33   18   25 ar
    34   18   19 ar
    35   19   20 1
    36   19   22 ar
    37   20   21 2
    38   20   45 1
    39   22   23 ar
    40   22   26 1
    41   23   24 ar
    42   24   25 ar
    43   24   46 1
    44   26   31 1
    45   26   27 1
    46   27   28 1
    47   27   47 1
    48   27   48 1
    49   28   29 1
    50   28   49 1
    51   28   50 1
    52   29   30 1
    53   30   31 1
    54   30   51 1
    55   30   52 1
    56   31   53 1
    57   31   54 1
@<TRIPOS>MOLECULE
ZINC43943406
   53    55     0     0     0
SMALL
USER_CHARGES

@<TRIPOS>ATOM
      1 C1         -0.0395    1.6683    0.2597 C.3       1 <0>        -0.1157
      2 C2         -0.0187    0.1634    0.1837 C.ar      1 <0>        -0.0983
      3 C3         -0.6527   -0.4835   -0.8616 C.ar      1 <0>        -0.0429
      4 C4         -0.6357   -1.8622   -0.9344 C.ar      1 <0>        -0.1319
      5 C5          0.0197   -2.5999    0.0439 C.ar      1 <0>         0.2128
      6 C6          0.6558   -1.9470    1.0921 C.ar      1 <0>        -0.0769
      7 C7          0.6389   -0.5674    1.1561 C.ar      1 <0>        -0.0361
      8 N1          1.3552   -2.7286    2.1366 N.pl3     1 <0>         0.0417
      9 O1          1.8261   -2.1671    3.0982 O.2       1 <0>        -0.1361
     10 O2          1.4556   -3.9285    2.0280 O.3       1 <0>        -0.1804
     11 N2          0.0385   -3.9952   -0.0263 N.am      1 <0>        -0.6389
     12 C8         -0.1000   -4.6120   -1.2166 C.2       1 <0>         0.5139
     13 O3         -0.1393   -3.9578   -2.2382 O.2       1 <0>        -0.4924
     14 C9         -0.2052   -6.1005   -1.2786 C.2       1 <0>         0.5102
     15 O4         -0.1660   -6.7547   -0.2571 O.2       1 <0>        -0.5002
     16 N3         -0.3438   -6.7173   -2.4689 N.am      1 <0>        -0.6952
     17 C10        -0.4470   -8.1774   -2.5297 C.3       1 <0>         0.1197
     18 C11        -0.5955   -8.6179   -3.9874 C.3       1 <0>        -0.0993
     19 C12        -1.9200   -8.0932   -4.5462 C.3       1 <0>        -0.1313
     20 C13        -2.0493   -8.5067   -6.0156 C.3       1 <0>         0.1187
     21 N4         -1.8884   -9.9638   -6.1127 N.pl3     1 <0>        -0.9973
     22 C14        -0.6920  -10.5831   -5.5263 C.3       1 <0>         0.1173
     23 C15        -0.5780  -10.1464   -4.0624 C.3       1 <0>        -0.1243
     24 S1         -3.0340  -10.8907   -6.8683 S.o2      1 <0>         2.6363
     25 O5         -2.9131  -12.1746   -6.2714 O.2       1 <0>        -0.9490
     26 O6         -4.2388  -10.1468   -6.7488 O.2       1 <0>        -0.9502
     27 C16        -2.5099  -10.9566   -8.6037 C.3       1 <0>        -0.6909
     28 C17        -3.3082  -10.1309   -9.6146 C.3       1 <0>        -0.1254
     29 C18        -3.4409  -11.6551   -9.5968 C.3       1 <0>        -0.1268
     30 H1          0.8198    2.0711   -0.2766 H         1 <0>         0.0800
     31 H2         -0.9579    2.0423   -0.1927 H         1 <0>         0.0769
     32 H3          0.0047    1.9801    1.3032 H         1 <0>         0.0756
     33 H4         -1.1619    0.0905   -1.6217 H         1 <0>         0.1497
     34 H5         -1.1315   -2.3667   -1.7505 H         1 <0>         0.1681
     35 H6          1.1364   -0.0589    1.9687 H         1 <0>         0.1598
     36 H7          0.1513   -4.5200    0.7817 H         1 <0>         0.4379
     37 H8         -0.3751   -6.1945   -3.2853 H         1 <0>         0.4135
     38 H9          0.4526   -8.6232   -2.1052 H         1 <0>         0.0807
     39 H10        -1.3175   -8.5041   -1.9609 H         1 <0>         0.0795
     40 H11         0.2306   -8.2161   -4.5741 H         1 <0>         0.0850
     41 H12        -2.7479   -8.5142   -3.9756 H         1 <0>         0.0757
     42 H13        -1.9414   -7.0060   -4.4709 H         1 <0>         0.0772
     43 H14        -3.0325   -8.2218   -6.3902 H         1 <0>         0.0965
     44 H15        -1.2751   -8.0135   -6.6034 H         1 <0>         0.0715
     45 H16        -0.7796  -11.6684   -5.5781 H         1 <0>         0.0977
     46 H17         0.1929  -10.2593   -6.0742 H         1 <0>         0.0718
     47 H18         0.3559  -10.5206   -3.6428 H         1 <0>         0.0837
     48 H19        -1.4184  -10.5481   -3.4964 H         1 <0>         0.0763
     49 H20        -1.4365  -11.0523   -8.7673 H         1 <0>         0.1570
     50 H21        -4.1483   -9.5481   -9.2369 H         1 <0>         0.1182
     51 H22        -2.7600   -9.6831  -10.4435 H         1 <0>         0.1129
     52 H23        -2.9801  -12.2100  -10.4140 H         1 <0>         0.1161
     53 H24        -4.3684  -12.0750   -9.2074 H         1 <0>         0.1074
@<TRIPOS>BOND
     1    1    2 1
     2    1   30 1
     3    1   31 1
     4    1   32 1
     5    2    7 ar
     6    2    3 ar
     7    3    4 ar
     8    3   33 1
     9    4    5 ar
    10    4   34 1
    11    5    6 ar
    12    5   11 1
    13    6    7 ar
    14    6    8 1
    15    7   35 1
    16    8    9 2
    17    8   10 1
    18   11   12 am
    19   11   36 1
    20   12   13 2
    21   12   14 1
    22   14   15 2
    23   14   16 am
    24   16   17 1
    25   16   37 1
    26   17   18 1
    27   17   38 1
    28   17   39 1
    29   18   23 1
    30   18   19 1
    31   18   40 1
    32   19   20 1
    33   19   41 1
    34   19   42 1
    35   20   21 1
    36   20   43 1
    37   20   44 1
    38   21   22 1
    39   21   24 1
    40   22   23 1
    41   22   45 1
    42   22   46 1
    43   23   47 1
    44   23   48 1
    45   24   25 2
    46   24   26 2
    47   24   27 1
    48   27   29 1
    49   27   28 1
    50   27   49 1
    51   28   29 1
    52   28   50 1
    53   28   51 1
    54   29   52 1
    55   29   53 1
@<TRIPOS>MOLECULE
ZINC38586569
   52    56     0     0     0
SMALL
USER_CHARGES

@<TRIPOS>ATOM
      1 C1         -0.0184    1.5028    0.0103 C.3       1 <0>        -0.1085
      2 C2          0.0021   -0.0041    0.0020 C.2       1 <0>         0.1925
      3 C3         -1.0690   -0.7555    0.0030 C.2       1 <0>        -0.2879
      4 C4         -2.5221   -0.3079   -0.0464 C.3       1 <0>         0.0661
      5 H1         -2.8377   -0.1865   -1.0826 H         1 <0>         0.1093
      6 S1         -3.5173   -1.6069    0.7569 S.3       1 <0>        -0.1276
      7 C5         -3.6259   -2.9304   -0.4655 C.3       1 <0>        -0.1585
      8 C6         -2.4663   -3.1184   -1.3361 C.2       1 <0>         0.5355
      9 O1         -2.7253   -3.6070   -2.4155 O.2       1 <0>        -0.5517
     10 N1         -1.1927   -2.8506   -1.1542 N.am      1 <0>        -0.7032
     11 C7         -0.6314   -2.1992    0.0219 C.3       1 <0>         0.4160
     12 H2         -0.9582   -2.6956    0.9356 H         1 <0>         0.1325
     13 N2          0.8357   -2.1340   -0.0624 N.pl3     1 <0>        -0.3316
     14 N3          1.1568   -0.7682   -0.0136 N.pl3     1 <0>        -0.5220
     15 C8          1.6929   -3.1694   -0.1693 C.2       1 <0>         0.5280
     16 N4          1.2598   -4.4165   -0.2160 N.2       1 <0>        -0.6501
     17 C9          2.0598   -5.4768   -0.2563 C.2       1 <0>         0.4546
     18 N5          3.3467   -5.4105    0.0644 N.2       1 <0>        -0.5537
     19 C10         3.8109   -4.2015    0.3647 C.2       1 <0>         0.3913
     20 N6          4.7312   -3.7542    1.1654 N.2       1 <0>        -0.5345
     21 C11         4.5852   -2.4417    1.3897 C.2       1 <0>         0.3194
     22 N7          3.6747   -1.8905    0.6364 N.2       1 <0>        -0.5462
     23 C12         3.1795   -2.9483   -0.2463 C.3       1 <0>        -0.0698
     24 H3          3.5001   -2.8041   -1.2781 H         1 <0>         0.1746
     25 C13        -2.6828    0.9947    0.6942 C.ar      1 <0>        -0.0536
     26 C14        -2.6451    2.1920    0.0033 C.ar      1 <0>        -0.1298
     27 C15        -2.7921    3.3885    0.6794 C.ar      1 <0>        -0.0825
     28 C16        -2.9770    3.3936    2.0498 C.ar      1 <0>        -0.1922
     29 C17        -3.0158    2.1977    2.7479 C.ar      1 <0>         0.1146
     30 C18        -2.8739    0.9925    2.0661 C.ar      1 <0>         0.0812
     31 O2         -2.9168   -0.1844    2.7463 O.3       1 <0>        -0.2973
     32 C19        -1.6774   -0.6903    3.2463 C.3       1 <0>         0.0374
     33 O3         -3.1975    2.2010    4.0957 O.3       1 <0>        -0.3037
     34 C20        -3.3417    3.4745    4.7278 C.3       1 <0>         0.0239
     35 H4          1.0042    1.8801    0.0026 H         1 <0>         0.0751
     36 H5         -0.5455    1.8639   -0.8728 H         1 <0>         0.0989
     37 H6         -0.5286    1.8543    0.9071 H         1 <0>         0.0974
     38 H7         -3.8036   -3.8656    0.0655 H         1 <0>         0.1401
     39 H8         -4.4929   -2.7356   -1.0968 H         1 <0>         0.1240
     40 H9         -0.5775   -3.1069   -1.8590 H         1 <0>         0.4048
     41 H10         2.0584   -0.4112    0.0088 H         1 <0>         0.4519
     42 H11         1.6480   -6.4277   -0.5609 H         1 <0>         0.2187
     43 H12         5.1628   -1.8954    2.1208 H         1 <0>         0.2143
     44 H13        -2.5001    2.1922   -1.0669 H         1 <0>         0.1333
     45 H14        -2.7620    4.3215    0.1363 H         1 <0>         0.1339
     46 H15        -3.0909    4.3299    2.5759 H         1 <0>         0.1354
     47 H16        -1.2426    0.0318    3.9375 H         1 <0>         0.0426
     48 H17        -1.8528   -1.6316    3.7671 H         1 <0>         0.0942
     49 H18        -0.9914   -0.8568    2.4158 H         1 <0>         0.0456
     50 H19        -3.4797    3.3344    5.7999 H         1 <0>         0.1032
     51 H20        -2.4466    4.0710    4.5515 H         1 <0>         0.0561
     52 H21        -4.2087    3.9894    4.3140 H         1 <0>         0.0581
@<TRIPOS>BOND
     1    1    2 1
     2    1   35 1
     3    1   36 1
     4    1   37 1
     5    2   14 1
     6    2    3 2
     7    3   11 1
     8    3    4 1
     9    4    5 1
    10    4    6 1
    11    4   25 1
    12    6    7 1
    13    7    8 1
    14    7   38 1
    15    7   39 1
    16    8    9 2
    17    8   10 am
    18   10   11 1
    19   10   40 1
    20   11   12 1
    21   11   13 1
    22   13   14 1
    23   13   15 1
    24   14   41 1
    25   15   23 1
    26   15   16 2
    27   16   17 1
    28   17   18 2
    29   17   42 1
    30   18   19 1
    31   19   23 1
    32   19   20 2
    33   20   21 1
    34   21   22 2
    35   21   43 1
    36   22   23 1
    37   23   24 1
    38   25   30 ar
    39   25   26 ar
    40   26   27 ar
    41   26   44 1
    42   27   28 ar
    43   27   45 1
    44   28   29 ar
    45   28   46 1
    46   29   30 ar
    47   29   33 1
    48   30   31 1
    49   31   32 1
    50   32   47 1
    51   32   48 1
    52   32   49 1
    53   33   34 1
    54   34   50 1
    55   34   51 1
    56   34   52 1
@<TRIPOS>MOLECULE
ZINC20739786
   49    53     0     0     0
SMALL
USER_CHARGES

@<TRIPOS>ATOM
      1 C1         -0.0184    1.5028    0.0103 C.3       1 <0>        -0.0790
      2 C2          0.0021   -0.0041    0.0020 C.2       1 <0>         0.1252
      3 C3          0.0079   -0.8059   -1.1244 C.2       1 <0>        -0.2735
      4 C4          0.0320   -2.1291   -0.7068 C.2       1 <0>         0.3184
      5 N1          0.0339   -2.1192    0.6483 N.pl3     1 <0>        -0.3019
      6 N2          0.0231   -0.7774    1.0636 N.2       1 <0>        -0.2435
      7 C5          0.0485   -3.2368    1.4787 C.ar      1 <0>         0.4900
      8 C6          0.0431   -3.0939    2.8749 C.ar      1 <0>        -0.0497
      9 C7          0.0585   -4.2599    3.6618 C.ar      1 <0>         0.2912
     10 N3          0.0496   -3.8351    4.9666 N.pl3     1 <0>        -0.5801
     11 H1          0.0563   -4.4009    5.7544 H         1 <0>         0.4345
     12 C8          0.0298   -2.4725    4.9525 C.2       1 <0>         0.2683
     13 N4          0.0260   -2.0397    3.7249 N.2       1 <0>        -0.4376
     14 N5          0.0771   -5.4437    3.0606 N.ar      1 <0>        -0.5273
     15 C9          0.0810   -5.5283    1.7468 C.ar      1 <0>         0.3474
     16 N6          0.0623   -4.4624    0.9679 N.ar      1 <0>        -0.5230
     17 N7          0.0571   -3.1593   -1.5989 N.2       1 <0>        -0.5363
     18 C10         0.3444   -2.9122   -2.8420 C.2       1 <0>         0.4044
     19 C11         0.7160   -1.5516   -3.3542 C.3       1 <0>        -0.1077
     20 C12        -0.0115   -0.4410   -2.5874 C.3       1 <0>         0.0449
     21 H2          0.5012    0.5090   -2.7381 H         1 <0>         0.1190
     22 C13        -1.4356   -0.3362   -3.0690 C.ar      1 <0>        -0.0592
     23 C14        -2.2755   -1.4317   -2.9873 C.ar      1 <0>        -0.1379
     24 C15        -3.5822   -1.3389   -3.4281 C.ar      1 <0>        -0.0783
     25 C16        -4.0553   -0.1503   -3.9532 C.ar      1 <0>        -0.1974
     26 C17        -3.2191    0.9508   -4.0379 C.ar      1 <0>         0.1141
     27 C18        -1.9050    0.8592   -3.5883 C.ar      1 <0>         0.0731
     28 O1         -1.0819    1.9391   -3.6642 O.3       1 <0>        -0.3206
     29 C19        -0.3221    2.0927   -4.8647 C.3       1 <0>         0.0318
     30 O2         -3.6828    2.1205   -4.5541 O.3       1 <0>        -0.3057
     31 C20        -5.0434    2.1429   -4.9902 C.3       1 <0>         0.0243
     32 O3          0.3069   -3.9352   -3.7200 O.3       1 <0>        -0.4534
     33 H3          1.0042    1.8801    0.0026 H         1 <0>         0.0837
     34 H4         -0.5455    1.8639   -0.8728 H         1 <0>         0.0884
     35 H5         -0.5286    1.8543    0.9071 H         1 <0>         0.0785
     36 H6          0.0182   -1.8441    5.8308 H         1 <0>         0.2325
     37 H7          0.0966   -6.5064    1.2890 H         1 <0>         0.2156
     38 H8          1.7917   -1.4124   -3.2465 H         1 <0>         0.1149
     39 H9          0.4540   -1.4852   -4.4102 H         1 <0>         0.1106
     40 H10        -1.9096   -2.3619   -2.5785 H         1 <0>         0.1235
     41 H11        -4.2351   -2.1967   -3.3626 H         1 <0>         0.1277
     42 H12        -5.0765   -0.0807   -4.2976 H         1 <0>         0.1333
     43 H13         0.2907    2.9913   -4.7944 H         1 <0>         0.0958
     44 H14         0.3216    1.2236   -5.0009 H         1 <0>         0.0453
     45 H15        -0.9991    2.1801   -5.7144 H         1 <0>         0.0473
     46 H16        -5.2841    3.1324   -5.3790 H         1 <0>         0.1025
     47 H17        -5.1858    1.3997   -5.7747 H         1 <0>         0.0557
     48 H18        -5.6983    1.9138   -4.1495 H         1 <0>         0.0565
     49 H19         0.0613   -4.7833   -3.3256 H         1 <0>         0.4136
@<TRIPOS>BOND
     1    1    2 1
     2    1   33 1
     3    1   34 1
     4    1   35 1
     5    2    6 2
     6    2    3 1
     7    3   20 1
     8    3    4 2
     9    4    5 1
    10    4   17 1
    11    5    6 1
    12    5    7 1
    13    7   16 ar
    14    7    8 ar
    15    8   13 1
    16    8    9 ar
    17    9   10 1
    18    9   14 ar
    19   10   11 1
    20   10   12 1
    21   12   13 2
    22   12   36 1
    23   14   15 ar
    24   15   16 ar
    25   15   37 1
    26   17   18 2
    27   18   19 1
    28   18   32 1
    29   19   20 1
    30   19   38 1
    31   19   39 1
    32   20   21 1
    33   20   22 1
    34   22   27 ar
    35   22   23 ar
    36   23   24 ar
    37   23   40 1
    38   24   25 ar
    39   24   41 1
    40   25   26 ar
    41   25   42 1
    42   26   27 ar
    43   26   30 1
    44   27   28 1
    45   28   29 1
    46   29   43 1
    47   29   44 1
    48   29   45 1
    49   30   31 1
    50   31   46 1
    51   31   47 1
    52   31   48 1
    53   32   49 1
@<TRIPOS>MOLECULE
ZINC13435069
   45    47     0     0     0
SMALL
USER_CHARGES
[(2S,3S,5R)-5-(4-amino-2-oxo-pyrimidin-1-yl)-3-hydroxy-tetrahydrofuran-2-yl]methyl 4-methylbenzenesulfonate
@<TRIPOS>ATOM
      1 C1        -10.9738   -0.9353   -2.5795 C.3       1 <0>        -0.1267
      2 C2         -9.5105   -1.1332   -2.8804 C.ar      1 <0>        -0.0251
      3 C3         -8.8860   -0.3411   -3.8256 C.ar      1 <0>        -0.1425
      4 C4         -7.5437   -0.5226   -4.1016 C.ar      1 <0>        -0.0090
      5 C5         -6.8257   -1.4956   -3.4318 C.ar      1 <0>        -0.7115
      6 C6         -7.4514   -2.2909   -2.4900 C.ar      1 <0>        -0.0204
      7 C7         -8.7926   -2.1065   -2.2109 C.ar      1 <0>        -0.1429
      8 S1         -5.1148   -1.7269   -3.7836 S.o2      1 <0>         2.6975
      9 O1         -4.8990   -1.2277   -5.0964 O.2       1 <0>        -0.9328
     10 O2         -4.8015   -3.0633   -3.4157 O.2       1 <0>        -0.9660
     11 O3         -4.3350   -0.8219   -2.8405 O.3       1 <0>        -0.7218
     12 C8         -4.2778   -1.2970   -1.4940 C.3       1 <0>         0.0619
     13 C9         -3.4742   -0.3142   -0.6401 C.3       1 <0>         0.1071
     14 H1         -3.8942    0.6872   -0.7350 H         1 <0>         0.1184
     15 C10        -3.5037   -0.7565    0.8387 C.3       1 <0>         0.0813
     16 H2         -4.2269   -0.1695    1.4048 H         1 <0>         0.0978
     17 C11        -2.0548   -0.4468    1.3043 C.3       1 <0>        -0.1924
     18 C12        -1.2588   -0.7500    0.0100 C.3       1 <0>         0.2925
     19 H3         -1.0656   -1.8193   -0.0753 H         1 <0>         0.1191
     20 O4         -2.1057   -0.3091   -1.0632 O.3       1 <0>        -0.3488
     21 N1          0.0021   -0.0041    0.0020 N.am      1 <0>        -0.5293
     22 C13         1.1872   -0.6764   -0.0133 C.2       1 <0>         0.1925
     23 C14         2.3460    0.0242   -0.0206 C.2       1 <0>        -0.2814
     24 C15         2.2923    1.4332   -0.0121 C.2       1 <0>         0.4595
     25 N2          1.1150    2.0445    0.0024 N.2       1 <0>        -0.6004
     26 C16        -0.0162    1.3414    0.0094 C.2       1 <0>         0.6511
     27 O5         -1.0863    1.9269    0.0176 O.2       1 <0>        -0.5215
     28 N3          3.4541    2.1698   -0.0196 N.pl3     1 <0>        -0.7496
     29 O6         -3.7893   -2.1525    0.9463 O.3       1 <0>        -0.5567
     30 H4        -11.5690   -1.5684   -3.2375 H         1 <0>         0.0813
     31 H5        -11.1708   -1.2035   -1.5415 H         1 <0>         0.0738
     32 H6        -11.2401    0.1092   -2.7417 H         1 <0>         0.0742
     33 H7         -9.4468    0.4193   -4.3487 H         1 <0>         0.1353
     34 H8         -7.0558    0.0960   -4.8404 H         1 <0>         0.1434
     35 H9         -6.8915   -3.0540   -1.9698 H         1 <0>         0.1423
     36 H10        -9.2805   -2.7251   -1.4721 H         1 <0>         0.1346
     37 H11        -3.7957   -2.2744   -1.4737 H         1 <0>         0.1174
     38 H12        -5.2888   -1.3822   -1.0955 H         1 <0>         0.1000
     39 H13        -1.7528   -1.1092    2.1155 H         1 <0>         0.1003
     40 H14        -1.9503    0.5988    1.5939 H         1 <0>         0.1115
     41 H15         1.2022   -1.7562   -0.0200 H         1 <0>         0.1797
     42 H16         3.2966   -0.4882   -0.0324 H         1 <0>         0.1643
     43 H17         3.9962    1.9455    0.7902 H         1 <0>         0.3728
     44 H18         3.4140    3.1389   -0.0137 H         1 <0>         0.3776
     45 H19        -3.8188   -2.4790    1.8561 H         1 <0>         0.3915
@<TRIPOS>BOND
     1    1    2 1
     2    1   30 1
     3    1   31 1
     4    1   32 1
     5    2    7 ar
     6    2    3 ar
     7    3    4 ar
     8    3   33 1
     9    4    5 ar
    10    4   34 1
    11    5    6 ar
    12    5    8 1
    13    6    7 ar
    14    6   35 1
    15    7   36 1
    16    8    9 2
    17    8   10 2
    18    8   11 1
    19   11   12 1
    20   12   13 1
    21   12   37 1
    22   12   38 1
    23   13   14 1
    24   13   20 1
    25   13   15 1
    26   15   16 1
    27   15   17 1
    28   15   29 1
    29   17   18 1
    30   17   39 1
    31   17   40 1
    32   18   19 1
    33   18   20 1
    34   18   21 1
    35   21   26 am
    36   21   22 1
    37   22   23 2
    38   22   41 1
    39   23   24 1
    40   23   42 1
    41   24   25 2
    42   24   28 1
    43   25   26 1
    44   26   27 2
    45   28   43 1
    46   28   44 1
    47   29   45 1
@<TRIPOS>MOLECULE
ZINC04188277
   40    43     0     0     0
SMALL
USER_CHARGES

@<TRIPOS>ATOM
      1 C1         -0.1017    1.5148   -0.0230 C.3       1 <0>        -0.1517
      2 C2         -0.1008   -0.0148   -0.0585 C.3       1 <0>         0.0403
      3 O1          0.6709   -0.4649   -1.1737 O.3       1 <0>        -0.3600
      4 C3          0.8457   -1.8822   -1.2254 C.3       1 <0>         0.3695
      5 H1          1.4478   -2.1485   -2.0941 H         1 <0>         0.1797
      6 O2          1.5027   -2.3433   -0.0093 O.3       1 <0>        -0.3546
      7 C4          0.6882   -3.3806    0.4530 C.3       1 <0>         0.0061
      8 H2          0.8923   -4.2935   -0.1067 H         1 <0>         0.0994
      9 C5          0.3653   -3.7157    1.8891 C.3       1 <0>         0.0918
     10 H3          0.2980   -2.8094    2.4909 H         1 <0>         0.1103
     11 O3         -0.9362   -4.3655    1.7871 O.3       1 <0>        -0.3338
     12 C6         -1.6052   -3.8999    0.5837 C.3       1 <0>         0.3272
     13 H4         -2.5894   -3.5012    0.8297 H         1 <0>         0.1464
     14 C7         -0.7279   -2.8034    0.0473 C.3       1 <0>        -0.0287
     15 H5         -0.9143   -1.8680    0.5749 H         1 <0>         0.1204
     16 O4         -0.4576   -2.5392   -1.3062 O.3       1 <0>        -0.3365
     17 N1         -1.7294   -4.9940   -0.3826 N.pl3     1 <0>        -0.4771
     18 C8         -0.9507   -6.1113   -0.4405 C.2       1 <0>         0.2545
     19 N2         -1.3385   -6.8732   -1.4217 N.2       1 <0>        -0.4547
     20 C9         -2.3877   -6.2950   -2.0541 C.ar      1 <0>        -0.1100
     21 C10        -2.6547   -5.0848   -1.3916 C.ar      1 <0>         0.3200
     22 N3         -3.6540   -4.3207   -1.8199 N.ar      1 <0>        -0.5579
     23 C11        -4.3878   -4.6903   -2.8485 C.ar      1 <0>         0.3691
     24 N4         -4.1773   -5.8192   -3.5003 N.ar      1 <0>        -0.5913
     25 C12        -3.1952   -6.6435   -3.1499 C.ar      1 <0>         0.5110
     26 N5         -2.9830   -7.8250   -3.8384 N.pl3     1 <0>        -0.8165
     27 C13         1.4086   -4.6726    2.4696 C.3       1 <0>         0.0821
     28 O5          1.1443   -4.8797    3.8586 O.3       1 <0>        -0.5630
     29 H6          0.9219    1.8766    0.0738 H         1 <0>         0.0672
     30 H7         -0.5373    1.8994   -0.9452 H         1 <0>         0.0676
     31 H8         -0.6904    1.8582    0.8277 H         1 <0>         0.0768
     32 H9          0.3347   -0.3993    0.8638 H         1 <0>         0.0604
     33 H10        -1.1245   -0.3765   -0.1553 H         1 <0>         0.0597
     34 H11        -0.1324   -6.3317    0.2290 H         1 <0>         0.2156
     35 H12        -5.1924   -4.0461   -3.1712 H         1 <0>         0.2061
     36 H13        -2.2700   -8.4237   -3.5661 H         1 <0>         0.4191
     37 H14        -3.5472   -8.0545   -4.5933 H         1 <0>         0.4115
     38 H15         1.3591   -5.6263    1.9441 H         1 <0>         0.0599
     39 H16         2.4029   -4.2425    2.3491 H         1 <0>         0.0749
     40 H17         1.7682   -5.4774    4.2928 H         1 <0>         0.3890
@<TRIPOS>BOND
     1    1    2 1
     2    1   29 1
     3    1   30 1
     4    1   31 1
     5    2    3 1
     6    2   32 1
     7    2   33 1
     8    3    4 1
     9    4    5 1
    10    4   16 1
    11    4    6 1
    12    6    7 1
    13    7    8 1
    14    7   14 1
    15    7    9 1
    16    9   10 1
    17    9   11 1
    18    9   27 1
    19   11   12 1
    20   12   13 1
    21   12   14 1
    22   12   17 1
    23   14   15 1
    24   14   16 1
    25   17   21 1
    26   17   18 1
    27   18   19 2
    28   18   34 1
    29   19   20 1
    30   20   25 ar
    31   20   21 ar
    32   21   22 ar
    33   22   23 ar
    34   23   24 ar
    35   23   35 1
    36   24   25 ar
    37   25   26 1
    38   26   36 1
    39   26   37 1
    40   27   28 1
    41   27   38 1
    42   27   39 1
    43   28   40 1
@<TRIPOS>MOLECULE
ZINC53774088
   36    37     0     0     0
SMALL
USER_CHARGES

@<TRIPOS>ATOM
      1 C1         -0.0167    1.3784    0.0096 C.ar      1 <0>        -0.0867
      2 C2          1.1692    2.0867    0.0021 C.ar      1 <0>        -0.0784
      3 C3          2.3808    1.4089   -0.0131 C.ar      1 <0>         0.1444
      4 C4          2.3963    0.0203   -0.0208 C.ar      1 <0>        -0.0528
      5 C5          1.2074   -0.6821   -0.0132 C.ar      1 <0>        -0.0263
      6 C6          0.0021   -0.0041    0.0020 C.ar      1 <0>        -0.0558
      7 N1          1.2230   -2.1622   -0.0218 N.pl3     1 <0>         0.0303
      8 O1          2.2763   -2.7555   -0.0355 O.2       1 <0>        -0.1476
      9 O2          0.1825   -2.7777   -0.0152 O.3       1 <0>        -0.1430
     10 N2          3.5855    2.1245   -0.0213 N.pl3     1 <0>        -0.2395
     11 C7          3.6896    3.4748    0.0870 C.2       1 <0>        -0.0108
     12 C8          5.0078    3.7780    0.0384 C.2       1 <0>        -0.1577
     13 C9          5.6773    2.5392   -0.1040 C.2       1 <0>         0.0055
     14 N3          4.7531    1.5991   -0.1266 N.2       1 <0>        -0.2605
     15 C10         7.1367    2.3373   -0.2038 C.2       1 <0>         0.6058
     16 O3          7.8867    3.2934   -0.1657 O.2       1 <0>        -0.5164
     17 N4          7.6372    1.0930   -0.3371 N.am      1 <0>        -0.7126
     18 C11         9.0851    0.8927   -0.4361 C.3       1 <0>         0.1326
     19 C12         9.3847   -0.6009   -0.5790 C.3       1 <0>        -0.6498
     20 S1         11.1774   -0.8490   -0.7015 S.o2      1 <0>         2.6284
     21 O4         11.6632   -0.3136   -1.9249 O.2       1 <0>        -0.9535
     22 O5         11.8024   -0.5208    0.5317 O.2       1 <0>        -0.9534
     23 N5         11.3712   -2.4869   -0.8507 N.pl3     1 <0>        -1.2490
     24 H1         -0.9594    1.9050    0.0260 H         1 <0>         0.1643
     25 H2          1.1539    3.1666    0.0077 H         1 <0>         0.1561
     26 H3          3.3372   -0.5098   -0.0330 H         1 <0>         0.1698
     27 H4         -0.9264   -0.5556    0.0079 H         1 <0>         0.1645
     28 H5          2.8737    4.1747    0.1916 H         1 <0>         0.1931
     29 H6          5.4549    4.7594    0.0961 H         1 <0>         0.1763
     30 H7          7.0388    0.3302   -0.3675 H         1 <0>         0.4115
     31 H8          9.4668    1.4248   -1.3074 H         1 <0>         0.0914
     32 H9          9.5672    1.2755    0.4635 H         1 <0>         0.0915
     33 H10         9.0029   -1.1331    0.2923 H         1 <0>         0.1455
     34 H11         8.9026   -0.9837   -1.4785 H         1 <0>         0.1453
     35 H12        10.5950   -3.0686   -0.8557 H         1 <0>         0.4141
     36 H13        12.2608   -2.8645   -0.9329 H         1 <0>         0.4236
@<TRIPOS>BOND
     1    1    6 ar
     2    1    2 ar
     3    1   24 1
     4    2    3 ar
     5    2   25 1
     6    3    4 ar
     7    3   10 1
     8    4    5 ar
     9    4   26 1
    10    5    6 ar
    11    5    7 1
    12    6   27 1
    13    7    8 2
    14    7    9 1
    15   10   14 1
    16   10   11 1
    17   11   12 2
    18   11   28 1
    19   12   13 1
    20   12   29 1
    21   13   14 2
    22   13   15 1
    23   15   16 2
    24   15   17 am
    25   17   18 1
    26   17   30 1
    27   18   19 1
    28   18   31 1
    29   18   32 1
    30   19   20 1
    31   19   33 1
    32   19   34 1
    33   20   21 2
    34   20   22 2
    35   20   23 1
    36   23   35 1
    37   23   36 1
@<TRIPOS>MOLECULE
ZINC65147148
   46    48     0     0     0
SMALL
USER_CHARGES

@<TRIPOS>ATOM
      1 C1         -0.0221    1.7812    0.0118 C.2       1 <0>        -0.2293
      2 C2          1.3062    2.0519    0.0006 C.2       1 <0>         0.1081
      3 N1          2.1289    1.0195   -0.0128 N.2       1 <0>        -0.5252
      4 C3          1.6719   -0.2140   -0.0151 C.2       1 <0>         0.2878
      5 S1          0.0021   -0.0041    0.0020 S.3       1 <0>         0.1272
      6 N2          2.3929   -1.4023   -0.0287 N.am      1 <0>        -0.5243
      7 C4          1.7866   -2.7388   -0.0359 C.3       1 <0>         0.0967
      8 C5          2.9103   -3.6987   -0.4857 C.3       1 <0>        -0.1282
      9 C6          4.1778   -2.9213   -0.0613 C.3       1 <0>        -0.1494
     10 C7          3.7351   -1.4749   -0.0429 C.2       1 <0>         0.5160
     11 O1          4.4825   -0.5197   -0.0388 O.2       1 <0>        -0.4709
     12 C8          1.8208    3.4683    0.0028 C.3       1 <0>        -0.0573
     13 C9          1.8899    3.9755    1.4202 C.2       1 <0>         0.5222
     14 O2          1.5544    3.2574    2.3382 O.2       1 <0>        -0.5195
     15 N3          2.3247    5.2270    1.6677 N.am      1 <0>        -0.5314
     16 N4          2.3889    5.6984    2.9855 N.am      1 <0>        -0.5310
     17 C10         2.8237    6.9499    3.2330 C.2       1 <0>         0.7137
     18 O3          2.8794    7.3591    4.3766 O.2       1 <0>        -0.5714
     19 N5          3.1966    7.7479    2.2128 N.am      1 <0>        -0.7374
     20 C11         3.6691    9.1082    2.4818 C.3       1 <0>         0.1271
     21 C12         4.0258    9.7946    1.1618 C.3       1 <0>         0.0668
     22 C13         4.6327   11.1861    1.4423 C.3       1 <0>        -0.1481
     23 C14         4.0124   12.0504    0.3109 C.3       1 <0>        -0.1565
     24 C15         2.6172   11.3916    0.1688 C.3       1 <0>         0.0491
     25 O4          2.8417    9.9885    0.3794 O.3       1 <0>        -0.3773
     26 H1         -0.8631    2.4586    0.0273 H         1 <0>         0.1997
     27 H2          1.4432   -3.0026    0.9644 H         1 <0>         0.0912
     28 H3          0.9566   -2.7727   -0.7416 H         1 <0>         0.0928
     29 H4          2.8429   -4.6515    0.0394 H         1 <0>         0.1035
     30 H5          2.8872   -3.8475   -1.5653 H         1 <0>         0.0908
     31 H6          4.5049   -3.2368    0.9295 H         1 <0>         0.1147
     32 H7          4.9750   -3.0641   -0.7907 H         1 <0>         0.1129
     33 H8          2.8159    3.4941   -0.4412 H         1 <0>         0.1202
     34 H9          1.1479    4.1003   -0.5768 H         1 <0>         0.1215
     35 H10         2.5930    5.8012    0.9335 H         1 <0>         0.4205
     36 H11         2.1206    5.1241    3.7197 H         1 <0>         0.4436
     37 H12         3.1521    7.4214    1.3005 H         1 <0>         0.3948
     38 H13         2.8838    9.6729    2.9844 H         1 <0>         0.0753
     39 H14         4.5518    9.0667    3.1199 H         1 <0>         0.0814
     40 H15         4.7388    9.1835    0.6083 H         1 <0>         0.0895
     41 H16         4.3267   11.5524    2.4223 H         1 <0>         0.0841
     42 H17         5.7192   11.1595    1.3588 H         1 <0>         0.0885
     43 H18         3.9252   13.0932    0.6160 H         1 <0>         0.0867
     44 H19         4.5854   11.9597   -0.6119 H         1 <0>         0.0806
     45 H20         1.9353   11.7831    0.9237 H         1 <0>         0.0625
     46 H21         2.2169   11.5649   -0.8301 H         1 <0>         0.0880
@<TRIPOS>BOND
     1    1    5 1
     2    1    2 2
     3    1   26 1
     4    2    3 1
     5    2   12 1
     6    3    4 2
     7    4    5 1
     8    4    6 1
     9    6   10 am
    10    6    7 1
    11    7    8 1
    12    7   27 1
    13    7   28 1
    14    8    9 1
    15    8   29 1
    16    8   30 1
    17    9   10 1
    18    9   31 1
    19    9   32 1
    20   10   11 2
    21   12   13 1
    22   12   33 1
    23   12   34 1
    24   13   14 2
    25   13   15 am
    26   15   16 1
    27   15   35 1
    28   16   17 am
    29   16   36 1
    30   17   18 2
    31   17   19 am
    32   19   20 1
    33   19   37 1
    34   20   21 1
    35   20   38 1
    36   20   39 1
    37   21   25 1
    38   21   22 1
    39   21   40 1
    40   22   23 1
    41   22   41 1
    42   22   42 1
    43   23   24 1
    44   23   43 1
    45   23   44 1
    46   24   25 1
    47   24   45 1
    48   24   46 1
@<TRIPOS>MOLECULE
ZINC67246547
   55    57     0     0     0
SMALL
USER_CHARGES

@<TRIPOS>ATOM
      1 C1         -0.3520    3.1779   -0.9688 C.3       1 <0>        -0.1664
      2 C2         -0.3343    1.6658   -0.7359 C.3       1 <0>         0.1328
      3 C3          0.4036    1.3593    0.5688 C.3       1 <0>        -0.1634
      4 N1         -1.7098    1.1693   -0.6472 N.am      1 <0>        -0.6911
      5 C4         -2.3877    0.8583   -1.7698 C.2       1 <0>         0.5121
      6 O1         -1.8587    0.9895   -2.8540 O.2       1 <0>        -0.5080
      7 C5         -3.7908    0.3518   -1.6793 C.2       1 <0>         0.5092
      8 O2         -4.3620    0.3350   -0.6088 O.2       1 <0>        -0.5190
      9 N2         -4.4218   -0.0863   -2.7867 N.am      1 <0>        -0.5801
     10 C6         -3.7141   -0.1556   -4.0729 C.3       1 <0>         0.0434
     11 C7         -3.8237   -1.5857   -4.6161 C.3       1 <0>         0.0980
     12 N3         -5.2316   -2.0032   -4.5590 N.am      1 <0>        -0.6176
     13 C8         -5.9393   -1.9339   -3.2728 C.3       1 <0>         0.0917
     14 C9         -5.8281   -0.5091   -2.7284 C.3       1 <0>         0.0907
     15 C10        -5.8626   -2.4413   -5.6664 C.2       1 <0>         0.5224
     16 O3         -5.2422   -2.5948   -6.6972 O.2       1 <0>        -0.5247
     17 C11        -7.3390   -2.7404   -5.6238 C.3       1 <0>        -0.1045
     18 C12        -7.5556   -4.1689   -5.1199 C.3       1 <0>        -0.1189
     19 C13        -9.0560   -4.4673   -5.0654 C.3       1 <0>        -0.1097
     20 C14        -9.6606   -4.3039   -6.4555 C.3       1 <0>         0.1210
     21 C15        -9.4305   -2.8916   -6.9821 C.3       1 <0>        -0.1115
     22 C16        -7.9285   -2.5997   -7.0288 C.3       1 <0>        -0.1106
     23 C17        -9.0791   -5.3236   -7.4074 C.2       1 <0>         0.5300
     24 O4         -7.9177   -5.4444   -7.7337 O.2       1 <0>        -0.4463
     25 N4        -10.1246   -6.0711   -7.8177 N.am      1 <0>        -0.6818
     26 C18       -11.2710   -5.6641   -7.2590 C.2       1 <0>         0.7044
     27 O5        -12.3491   -6.1821   -7.4743 O.2       1 <0>        -0.5396
     28 N5        -11.0955   -4.6160   -6.4317 N.am      1 <0>        -0.7186
     29 H1          0.6714    3.5473   -1.0348 H         1 <0>         0.0719
     30 H2         -0.8777    3.3963   -1.8983 H         1 <0>         0.0620
     31 H3         -0.8621    3.6674   -0.1392 H         1 <0>         0.0601
     32 H4          0.1758    1.1764   -1.5655 H         1 <0>         0.0950
     33 H5         -0.1065    1.8488    1.3984 H         1 <0>         0.0646
     34 H6          0.4162    0.2821    0.7348 H         1 <0>         0.0645
     35 H7          1.4270    1.7287    0.5029 H         1 <0>         0.0786
     36 H8         -2.1326    1.0645    0.2195 H         1 <0>         0.4135
     37 H9         -4.1689    0.5396   -4.7786 H         1 <0>         0.0752
     38 H10        -2.6648    0.1011   -3.9274 H         1 <0>         0.1635
     39 H11        -3.4758   -1.6124   -5.6488 H         1 <0>         0.1075
     40 H12        -3.2183   -2.2561   -4.0061 H         1 <0>         0.0712
     41 H13        -6.9886   -2.1906   -3.4184 H         1 <0>         0.1035
     42 H14        -5.4845   -2.6291   -2.5672 H         1 <0>         0.0784
     43 H15        -6.1746   -0.4858   -1.6952 H         1 <0>         0.1092
     44 H16        -6.4369    0.1604   -3.3362 H         1 <0>         0.0804
     45 H17        -7.8325   -2.0392   -4.9509 H         1 <0>         0.0953
     46 H18        -7.0697   -4.8709   -5.7975 H         1 <0>         0.0915
     47 H19        -7.1281   -4.2712   -4.1225 H         1 <0>         0.0789
     48 H20        -9.2104   -5.4897   -4.7203 H         1 <0>         0.0813
     49 H21        -9.5389   -3.7750   -4.3758 H         1 <0>         0.0907
     50 H22        -9.8483   -2.8057   -7.9852 H         1 <0>         0.0806
     51 H23        -9.9194   -2.1743   -6.3230 H         1 <0>         0.0889
     52 H24        -7.7667   -1.5843   -7.3908 H         1 <0>         0.0783
     53 H25        -7.4414   -3.3070   -7.7000 H         1 <0>         0.0958
     54 H26       -10.0544   -6.8114   -8.4406 H         1 <0>         0.4338
     55 H27       -11.7812   -4.1580   -5.9209 H         1 <0>         0.4418
@<TRIPOS>BOND
     1    1    2 1
     2    1   29 1
     3    1   30 1
     4    1   31 1
     5    2    3 1
     6    2    4 1
     7    2   32 1
     8    3   33 1
     9    3   34 1
    10    3   35 1
    11    4    5 am
    12    4   36 1
    13    5    6 2
    14    5    7 1
    15    7    8 2
    16    7    9 am
    17    9   14 1
    18    9   10 1
    19   10   11 1
    20   10   37 1
    21   10   38 1
    22   11   12 1
    23   11   39 1
    24   11   40 1
    25   12   13 1
    26   12   15 am
    27   13   14 1
    28   13   41 1
    29   13   42 1
    30   14   43 1
    31   14   44 1
    32   15   16 2
    33   15   17 1
    34   17   22 1
    35   17   18 1
    36   17   45 1
    37   18   19 1
    38   18   46 1
    39   18   47 1
    40   19   20 1
    41   19   48 1
    42   19   49 1
    43   20   28 1
    44   20   21 1
    45   20   23 1
    46   21   22 1
    47   21   50 1
    48   21   51 1
    49   22   52 1
    50   22   53 1
    51   23   24 2
    52   23   25 am
    53   25   26 am
    54   25   54 1
    55   26   27 2
    56   26   28 am
    57   28   55 1
@<TRIPOS>MOLECULE
ZINC22159816
   33    33     0     0     0
SMALL
USER_CHARGES
2-[methyl-[1-methyl-4-(methylsulfamoyl)pyrrole-2-carbonyl]amino]acetic acid
@<TRIPOS>ATOM
      1 C1         -3.2460    4.3317   -0.5536 C.3       1 <0>         0.0847
      2 N1         -2.3587    5.2187    0.2028 N.pl3     1 <0>        -1.1274
      3 S1         -1.6947    4.7049    1.6302 S.o2      1 <0>         2.7247
      4 O1         -2.7588    4.1651    2.4020 O.2       1 <0>        -0.9695
      5 O2         -0.8736    5.7648    2.1009 O.2       1 <0>        -0.9645
      6 C2         -0.6172    3.3635    1.2505 C.2       1 <0>        -0.7614
      7 C3          0.7419    3.4627    0.9365 C.2       1 <0>        -0.0809
      8 C4          1.1998    2.1821    0.7102 C.2       1 <0>        -0.0291
      9 N2          0.1371    1.3248    0.8843 N.pl3     1 <0>        -0.3981
     10 C5         -0.9594    2.0537    1.2057 C.2       1 <0>         0.1244
     11 C6          0.1822   -0.1324    0.7400 C.3       1 <0>         0.0651
     12 C7          2.5699    1.8025    0.3492 C.2       1 <0>         0.5861
     13 O3          2.8806    0.6272    0.2922 O.2       1 <0>        -0.5540
     14 N3          3.4846    2.7552    0.0806 N.am      1 <0>        -0.5720
     15 C8          3.1620    4.1657    0.3097 C.3       1 <0>         0.0669
     16 C9          4.8015    2.3802   -0.4404 C.3       1 <0>         0.0708
     17 C10         4.7569    2.3537   -1.9465 C.2       1 <0>         0.4517
     18 O4          3.7304    2.6207   -2.5253 O.co2     1 <0>        -0.6296
     19 O5          5.8575    2.0336   -2.6450 O.co2     1 <0>        -0.7673
     20 H1         -3.5856    4.8438   -1.4660 H         1 <0>         0.0811
     21 H2         -4.1167    4.0694    0.0653 H         1 <0>         0.0684
     22 H3         -2.7019    3.4159   -0.8280 H         1 <0>         0.0536
     23 H4         -2.0016    6.1556   -0.2496 H         1 <0>         0.4416
     24 H5          1.3230    4.3713    0.8810 H         1 <0>         0.1797
     25 H6         -1.9446    1.6550    1.3977 H         1 <0>         0.1837
     26 H7         -0.8152   -0.5516    0.9387 H         1 <0>         0.0893
     27 H8          0.9048   -0.5496    1.4568 H         1 <0>         0.0927
     28 H9          0.4909   -0.3901   -0.2839 H         1 <0>         0.0921
     29 H10         4.0258    4.7887    0.0347 H         1 <0>         0.0792
     30 H11         2.9226    4.3192    1.3723 H         1 <0>         0.0665
     31 H12         2.2953    4.4483   -0.3059 H         1 <0>         0.0732
     32 H13         5.5499    3.1149   -0.1086 H         1 <0>         0.0857
     33 H14         5.0744    1.3833   -0.0640 H         1 <0>         0.0927
@<TRIPOS>BOND
     1    1    2 1
     2    1   20 1
     3    1   21 1
     4    1   22 1
     5    2    3 1
     6    2   23 1
     7    3    4 2
     8    3    5 2
     9    3    6 1
    10    6   10 2
    11    6    7 1
    12    7    8 2
    13    7   24 1
    14    8    9 1
    15    8   12 1
    16    9   10 1
    17    9   11 1
    18   10   25 1
    19   11   26 1
    20   11   27 1
    21   11   28 1
    22   12   13 2
    23   12   14 am
    24   14   15 1
    25   14   16 1
    26   15   29 1
    27   15   30 1
    28   15   31 1
    29   16   17 1
    30   16   32 1
    31   16   33 1
    32   17   18 2
    33   17   19 1
@<TRIPOS>MOLECULE
ZINC38029822
   27    28     0     0     0
SMALL
USER_CHARGES

@<TRIPOS>ATOM
      1 C1         -0.0157    1.3041    0.0092 C.2       1 <0>         0.0256
      2 C2          1.3095    1.7634   -0.0010 C.2       1 <0>        -0.0277
      3 C3          2.1255    0.6785   -0.0146 C.2       1 <0>         0.0142
      4 N1          1.3372   -0.4274   -0.0130 N.pl3     1 <0>        -0.3191
      5 N2          0.0021   -0.0041    0.0020 N.2       1 <0>        -0.2407
      6 C4          1.8011   -1.8169   -0.0256 C.3       1 <0>         0.0580
      7 C5          1.1989   -2.5582    1.1401 C.2       1 <0>         0.4868
      8 O1          0.4515   -1.9793    1.9101 O.co2     1 <0>        -0.6620
      9 O2          1.4590   -3.7366    1.3133 O.co2     1 <0>        -0.6937
     10 N3          1.7203    3.1097    0.0023 N.am      1 <0>        -0.6317
     11 C6          0.8006    4.0948    0.0169 C.2       1 <0>         0.4935
     12 O3         -0.3811    3.8212    0.0272 O.2       1 <0>        -0.4985
     13 C7          1.2404    5.5362    0.0204 C.3       1 <0>         0.1168
     14 N4          0.0619    6.4063    0.0370 N.pl3     1 <0>        -0.3699
     15 C8         -0.2082    7.3802    0.9234 C.2       1 <0>         0.2546
     16 N5         -1.3522    7.9230    0.5941 N.2       1 <0>        -0.5454
     17 C9         -1.8401    7.3251   -0.4920 C.2       1 <0>         0.1919
     18 N6         -1.0072    6.3929   -0.8737 N.2       1 <0>        -0.2870
     19 H1         -0.8997    1.9243    0.0250 H         1 <0>         0.1948
     20 H2          3.2054    0.6924   -0.0251 H         1 <0>         0.1685
     21 H3          1.4948   -2.2938   -0.9567 H         1 <0>         0.0850
     22 H4          2.8880   -1.8378    0.0529 H         1 <0>         0.0932
     23 H5          2.6653    3.3285   -0.0059 H         1 <0>         0.4057
     24 H6          1.8468    5.7289    0.9055 H         1 <0>         0.1317
     25 H7          1.8290    5.7387   -0.8743 H         1 <0>         0.1197
     26 H8          0.4108    7.6644    1.7615 H         1 <0>         0.2191
     27 H9         -2.7709    7.5734   -0.9804 H         1 <0>         0.2163
@<TRIPOS>BOND
     1    1    5 2
     2    1    2 1
     3    1   19 1
     4    2    3 2
     5    2   10 1
     6    3    4 1
     7    3   20 1
     8    4    5 1
     9    4    6 1
    10    6    7 1
    11    6   21 1
    12    6   22 1
    13    7    8 2
    14    7    9 1
    15   10   11 am
    16   10   23 1
    17   11   12 2
    18   11   13 1
    19   13   14 1
    20   13   24 1
    21   13   25 1
    22   14   18 1
    23   14   15 1
    24   15   16 2
    25   15   26 1
    26   16   17 1
    27   17   18 2
    28   17   27 1
@<TRIPOS>MOLECULE
ZINC41074013
   33    33     0     0     0
SMALL
USER_CHARGES

@<TRIPOS>ATOM
      1 C1         -0.0187    1.5275    0.0104 C.3       1 <0>        -0.1629
      2 C2          1.4204    2.0497   -0.0005 C.3       1 <0>         0.0645
      3 O1          2.1023    1.5392   -1.1479 O.3       1 <0>        -0.3831
      4 C3          2.1942    0.1136   -1.1856 C.3       1 <0>         0.0633
      5 C4          0.7862   -0.4864   -1.2223 C.3       1 <0>        -0.1694
      6 C5          0.0021   -0.0041    0.0020 C.3       1 <0>         0.1597
      7 N1         -1.3703   -0.5124   -0.0635 N.am      1 <0>        -0.7366
      8 C6         -1.6570   -1.7414    0.4097 C.2       1 <0>         0.6948
      9 O2         -0.7770   -2.4279    0.8908 O.2       1 <0>        -0.5271
     10 N2         -2.9196   -2.2091    0.3494 N.am      1 <0>        -0.6924
     11 C7         -3.2063   -3.4380    0.8226 C.2       1 <0>         0.5109
     12 O3         -2.3285   -4.1228    1.3026 O.2       1 <0>        -0.4315
     13 C8         -4.6181   -3.9610    0.7552 C.3       1 <0>         0.0410
     14 O4         -4.6666   -5.2749    1.3149 O.3       1 <0>        -0.3341
     15 C9         -5.9677   -5.8654    1.2998 C.3       1 <0>        -0.0037
     16 C10        -5.9019   -7.2416    1.9104 C.2       1 <0>         0.4976
     17 O5         -4.8392   -7.6764    2.3205 O.co2     1 <0>        -0.6680
     18 O6         -6.9114   -7.9202    1.9943 O.co2     1 <0>        -0.6959
     19 H1         -0.5273    1.8800    0.9078 H         1 <0>         0.0819
     20 H2         -0.5443    1.8896   -0.8732 H         1 <0>         0.0784
     21 H3          1.4115    3.1390   -0.0377 H         1 <0>         0.0991
     22 H4          1.9333    1.7209    0.9033 H         1 <0>         0.0552
     23 H5          2.7428   -0.1919   -2.0766 H         1 <0>         0.0982
     24 H6          2.7172   -0.2406   -0.2973 H         1 <0>         0.0555
     25 H7          0.2769   -0.1650   -2.1308 H         1 <0>         0.0740
     26 H8          0.8533   -1.5742   -1.2065 H         1 <0>         0.0829
     27 H9          0.4838   -0.3672    0.9098 H         1 <0>         0.0928
     28 H10        -2.0727    0.0354   -0.4475 H         1 <0>         0.3974
     29 H11        -3.6219   -1.6612   -0.0346 H         1 <0>         0.4074
     30 H12        -5.2773   -3.3012    1.3193 H         1 <0>         0.0768
     31 H13        -4.9430   -3.9968   -0.2846 H         1 <0>         0.0768
     32 H14        -6.6550   -5.2452    1.8752 H         1 <0>         0.0482
     33 H15        -6.3207   -5.9408    0.2713 H         1 <0>         0.0482
@<TRIPOS>BOND
     1    1    6 1
     2    1    2 1
     3    1   19 1
     4    1   20 1
     5    2    3 1
     6    2   21 1
     7    2   22 1
     8    3    4 1
     9    4    5 1
    10    4   23 1
    11    4   24 1
    12    5    6 1
    13    5   25 1
    14    5   26 1
    15    6    7 1
    16    6   27 1
    17    7    8 am
    18    7   28 1
    19    8    9 2
    20    8   10 am
    21   10   11 am
    22   10   29 1
    23   11   12 2
    24   11   13 1
    25   13   14 1
    26   13   30 1
    27   13   31 1
    28   14   15 1
    29   15   16 1
    30   15   32 1
    31   15   33 1
    32   16   17 2
    33   16   18 1
@<TRIPOS>MOLECULE
ZINC50469648
   28    29     0     0     0
SMALL
USER_CHARGES

@<TRIPOS>ATOM
      1 C1         -0.0169    1.3945    0.0097 C.2       1 <0>        -0.2158
      2 C2          1.2648    1.8283   -0.0002 C.2       1 <0>         0.0758
      3 N1          2.0664    0.7428   -0.0137 N.pl3     1 <0>        -0.3137
      4 N2          1.2503   -0.3958   -0.0120 N.2       1 <0>        -0.1775
      5 C3          0.0021   -0.0041    0.0020 C.2       1 <0>         0.1060
      6 N3         -1.1850   -0.8882    0.0090 N.pl3     1 <0>         0.0664
      7 O1         -2.2952   -0.4096    0.0226 O.2       1 <0>        -0.1377
      8 O2         -1.0445   -2.0890    0.0012 O.3       1 <0>        -0.1291
      9 C4          3.5313    0.7533   -0.0280 C.3       1 <0>         0.1129
     10 C5          4.0508   -0.0641    1.1266 C.2       1 <0>         0.5161
     11 O3          3.2739   -0.6023    1.8866 O.2       1 <0>        -0.4842
     12 N4          5.3788   -0.1969    1.3146 N.am      1 <0>        -0.5847
     13 C6          6.3601    0.4478    0.4150 C.3       1 <0>         0.1576
     14 S1          7.8523   -0.6032    0.6997 S.3       1 <0>        -0.3110
     15 C7          7.4677   -1.0379    2.4547 C.3       1 <0>        -0.0193
     16 C8          5.9207   -0.9759    2.4150 C.3       1 <0>         0.0551
     17 H1          5.5384   -1.9938    2.3395 H         1 <0>         0.0836
     18 C9          5.4284   -0.3818    3.7095 C.2       1 <0>         0.5011
     19 O4          5.6051   -0.9762    4.7593 O.co2     1 <0>        -0.6873
     20 O5          4.8534    0.6933    3.7071 O.co2     1 <0>        -0.6749
     21 H2         -0.8986    2.0179    0.0255 H         1 <0>         0.1753
     22 H3          1.5883    2.8587    0.0017 H         1 <0>         0.2005
     23 H4          3.8885    0.3264   -0.9652 H         1 <0>         0.1230
     24 H5          3.8882    1.7791    0.0633 H         1 <0>         0.1388
     25 H6          6.0346    0.3931   -0.6238 H         1 <0>         0.1078
     26 H7          6.5452    1.4800    0.7122 H         1 <0>         0.0960
     27 H8          7.8205   -2.0394    2.7012 H         1 <0>         0.1192
     28 H9          7.8723   -0.2970    3.1442 H         1 <0>         0.1000
@<TRIPOS>BOND
     1    1    5 1
     2    1    2 2
     3    1   21 1
     4    2    3 1
     5    2   22 1
     6    3    4 1
     7    3    9 1
     8    4    5 2
     9    5    6 1
    10    6    7 2
    11    6    8 1
    12    9   10 1
    13    9   23 1
    14    9   24 1
    15   10   11 2
    16   10   12 am
    17   12   16 1
    18   12   13 1
    19   13   14 1
    20   13   25 1
    21   13   26 1
    22   14   15 1
    23   15   16 1
    24   15   27 1
    25   15   28 1
    26   16   17 1
    27   16   18 1
    28   18   19 2
    29   18   20 1
@<TRIPOS>MOLECULE
ZINC64029075
   40    42     0     0     0
SMALL
USER_CHARGES

@<TRIPOS>ATOM
      1 C1         -0.0194    1.4608   -0.0071 C.3       1 <0>         0.0824
      2 N1          0.0013   -0.0041   -0.0059 N.pl3     1 <0>        -0.6160
      3 C2         -1.1803   -0.8715    0.1018 C.3       1 <0>         0.1422
      4 C3         -0.6076   -2.3005    0.0525 C.3       1 <0>        -0.5371
      5 H1         -0.9987   -2.8387   -0.8109 H         1 <0>         0.1380
      6 C4          0.8847   -2.0973   -0.0820 C.2       1 <0>        -0.2777
      7 C5          1.1417   -0.7931   -0.1124 C.2       1 <0>         0.2302
      8 C6          2.5002   -0.2388   -0.2418 C.2       1 <0>         0.4632
      9 O1          3.5506   -1.0647   -0.4460 O.3       1 <0>        -0.6375
     10 N2          2.6909    1.0582   -0.1587 N.2       1 <0>        -0.6522
     11 C7          3.9438    1.5695   -0.2780 C.2       1 <0>         0.5161
     12 N3          4.2857    2.8852   -0.2072 N.pl3     1 <0>        -0.5187
     13 N4          5.6777    2.9375   -0.3851 N.2       1 <0>        -0.3738
     14 C8          6.0915    1.7082   -0.5472 C.2       1 <0>         0.1931
     15 N5          5.0533    0.8791   -0.4781 N.2       1 <0>        -0.5592
     16 S1         -0.9947   -3.1928    1.5837 S.o2      1 <0>         2.5998
     17 O2         -0.3792   -2.5520    2.6926 O.2       1 <0>        -0.9435
     18 O3         -2.3743   -3.5319    1.6171 O.2       1 <0>        -0.9676
     19 N6         -0.2066   -4.6424    1.4424 N.pl3     1 <0>        -0.9970
     20 C9         -0.8633   -5.8043    0.8227 C.3       1 <0>         0.0882
     21 C10         0.0763   -6.3790   -0.2435 C.3       1 <0>         0.0455
     22 O4          1.3617   -6.6113    0.3377 O.3       1 <0>        -0.3791
     23 C11         2.0117   -5.4297    0.8120 C.3       1 <0>         0.0435
     24 C12         1.1732   -4.8048    1.9272 C.3       1 <0>         0.0898
     25 H2          1.0030    1.8386   -0.0086 H         1 <0>         0.1410
     26 H3         -0.5394    1.8161   -0.8967 H         1 <0>         0.0365
     27 H4         -0.5373    1.8176    0.8832 H         1 <0>         0.0411
     28 H5         -1.6948   -0.6994    1.0471 H         1 <0>         0.0592
     29 H6         -1.8553   -0.7022   -0.7371 H         1 <0>         0.0824
     30 H7          1.6218   -2.8839   -0.1468 H         1 <0>         0.1572
     31 H8          7.1174    1.4113   -0.7080 H         1 <0>         0.1934
     32 H9         -1.0637   -6.5607    1.5816 H         1 <0>         0.0787
     33 H10        -1.7988   -5.4928    0.3581 H         1 <0>         0.0951
     34 H11        -0.3293   -7.3190   -0.6178 H         1 <0>         0.1025
     35 H12         0.1713   -5.6696   -1.0656 H         1 <0>         0.0584
     36 H13         2.9985   -5.6867    1.1972 H         1 <0>         0.1079
     37 H14         2.1137   -4.7169   -0.0062 H         1 <0>         0.0673
     38 H15         1.5856   -3.8317    2.1937 H         1 <0>         0.1059
     39 H16         1.1813   -5.4588    2.7992 H         1 <0>         0.0767
     40 H17         3.6881    3.6356   -0.0633 H         1 <0>         0.4239
@<TRIPOS>BOND
     1    1    2 1
     2    1   25 1
     3    1   26 1
     4    1   27 1
     5    2    7 1
     6    2    3 1
     7    3    4 1
     8    3   28 1
     9    3   29 1
    10    4    5 1
    11    4    6 1
    12    4   16 1
    13    6    7 2
    14    6   30 1
    15    7    8 1
    16    8    9 1
    17    8   10 2
    18   10   11 1
    19   11   15 2
    20   11   12 1
    21   12   13 1
    22   12   40 1
    23   13   14 2
    24   14   15 1
    25   14   31 1
    26   16   17 2
    27   16   18 2
    28   16   19 1
    29   19   24 1
    30   19   20 1
    31   20   21 1
    32   20   32 1
    33   20   33 1
    34   21   22 1
    35   21   34 1
    36   21   35 1
    37   22   23 1
    38   23   24 1
    39   23   36 1
    40   23   37 1
    41   24   38 1
    42   24   39 1
@<TRIPOS>MOLECULE
ZINC35383817
   33    34     0     0     0
SMALL
USER_CHARGES

@<TRIPOS>ATOM
      1 C1         -0.0167    1.3792    0.0096 C.ar      1 <0>        -0.0735
      2 C2          1.1645    2.0922    0.0022 C.ar      1 <0>        -0.1194
      3 C3          2.3865    1.4251   -0.0137 C.ar      1 <0>         0.1181
      4 C4          2.3930    0.0360   -0.0291 C.ar      1 <0>        -0.1633
      5 C5          1.2137   -0.6746   -0.0174 C.ar      1 <0>        -0.0577
      6 C6          0.0021   -0.0041    0.0020 C.ar      1 <0>        -0.0640
      7 Cl1        -1.4873   -0.8958    0.0162 Cl        1 <0>        -0.0664
      8 C7          3.8446   -0.4011   -0.0691 C.3       1 <0>        -0.0997
      9 C8          4.5625    0.9090   -0.4708 C.3       1 <0>         0.0666
     10 H1          5.5239    0.9936    0.0358 H         1 <0>         0.1491
     11 O1          3.6536    1.9238   -0.0112 O.3       1 <0>        -0.2682
     12 C9          4.7406    0.9836   -1.9654 C.2       1 <0>         0.4971
     13 O2          4.1707    1.8445   -2.6018 O.2       1 <0>        -0.5194
     14 N1          5.5331    0.0935   -2.5949 N.am      1 <0>        -0.7080
     15 C10         5.7062    0.1659   -4.0478 C.3       1 <0>         0.0998
     16 C11         6.6333   -0.9332   -4.4986 C.2       1 <0>         0.4978
     17 O3          7.1032   -1.7015   -3.6863 O.2       1 <0>        -0.5602
     18 N2          6.9403   -1.0625   -5.8046 N.am      1 <0>        -0.6894
     19 C12         7.8416   -2.1311   -6.2429 C.3       1 <0>         0.0498
     20 C13         8.0197   -2.0566   -7.7374 C.2       1 <0>         0.4898
     21 O4          7.4469   -1.1911   -8.3772 O.co2     1 <0>        -0.6902
     22 O5          8.7366   -2.8618   -8.3068 O.co2     1 <0>        -0.6862
     23 H2         -0.9607    1.9036    0.0260 H         1 <0>         0.1428
     24 H3          1.1411    3.1719    0.0091 H         1 <0>         0.1402
     25 H4          1.2335   -1.7544   -0.0233 H         1 <0>         0.1375
     26 H5          4.1759   -0.7418    0.9119 H         1 <0>         0.1103
     27 H6          3.9976   -1.1754   -0.8208 H         1 <0>         0.1033
     28 H7          5.9888   -0.5951   -2.0859 H         1 <0>         0.4130
     29 H8          4.7385    0.0478   -4.5353 H         1 <0>         0.1002
     30 H9          6.1321    1.1330   -4.3152 H         1 <0>         0.1012
     31 H10         6.5645   -0.4481   -6.4543 H         1 <0>         0.4118
     32 H11         8.8093   -2.0130   -5.7553 H         1 <0>         0.0687
     33 H12         7.4157   -3.0982   -5.9755 H         1 <0>         0.0685
@<TRIPOS>BOND
     1    1    6 ar
     2    1    2 ar
     3    1   23 1
     4    2    3 ar
     5    2   24 1
     6    3   11 1
     7    3    4 ar
     8    4    5 ar
     9    4    8 1
    10    5    6 ar
    11    5   25 1
    12    6    7 1
    13    8    9 1
    14    8   26 1
    15    8   27 1
    16    9   10 1
    17    9   11 1
    18    9   12 1
    19   12   13 2
    20   12   14 am
    21   14   15 1
    22   14   28 1
    23   15   16 1
    24   15   29 1
    25   15   30 1
    26   16   17 2
    27   16   18 am
    28   18   19 1
    29   18   31 1
    30   19   20 1
    31   19   32 1
    32   19   33 1
    33   20   21 2
    34   20   22 1
@<TRIPOS>MOLECULE
ZINC40503865
   35    37     0     0     0
SMALL
USER_CHARGES

@<TRIPOS>ATOM
      1 C1         -0.1532    0.6081    0.6328 C.3       1 <0>        -0.1476
      2 C2         -0.1665   -0.0455   -0.7506 C.3       1 <0>         0.1336
      3 C3          0.6470   -1.3407   -0.7105 C.3       1 <0>        -0.1317
      4 C4         -0.0564   -2.6302   -1.1385 C.3       1 <0>        -0.1714
      5 C5          0.2604   -2.3856    0.3382 C.3       1 <0>        -0.1800
      6 C6         -1.5871   -0.3566   -1.1456 C.2       1 <0>         0.4828
      7 O1         -1.8503   -0.6397   -2.3019 O.co2     1 <0>        -0.6525
      8 O2         -2.4733   -0.3252   -0.3088 O.co2     1 <0>        -0.6814
      9 N1          0.4230    0.8713   -1.7295 N.pl3     1 <0>        -1.0866
     10 S1         -0.3785    2.2570   -2.1534 S.o2      1 <0>         2.7232
     11 O3         -0.8358    2.8477   -0.9446 O.2       1 <0>        -0.9682
     12 O4          0.4606    2.9476   -3.0690 O.2       1 <0>        -0.9849
     13 C7         -1.8147    1.7738   -3.0526 C.2       1 <0>        -0.7073
     14 C8         -3.0810    2.1332   -2.7901 C.2       1 <0>         0.2068
     15 N2         -3.9267    1.5629   -3.7035 N.pl3     1 <0>        -0.5702
     16 H1         -4.8898    1.6778   -3.7173 H         1 <0>         0.4166
     17 C9         -3.2108    0.8043   -4.5982 C.ar      1 <0>         0.2880
     18 C10        -1.8547    0.9086   -4.2328 C.ar      1 <0>        -0.0051
     19 C11        -0.8877    0.2346   -4.9818 C.ar      1 <0>        -0.0282
     20 C12        -1.3095   -0.5126   -6.0656 C.ar      1 <0>        -0.1950
     21 C13        -2.6608   -0.5678   -6.3700 C.ar      1 <0>         0.1130
     22 N3         -3.5570    0.0691   -5.6463 N.ar      1 <0>        -0.4989
     23 H2          0.8558    0.9495    0.8636 H         1 <0>         0.0362
     24 H3         -0.8350    1.4585    0.6393 H         1 <0>         0.0818
     25 H4         -0.4711   -0.1182    1.3808 H         1 <0>         0.0607
     26 H5          1.7047   -1.2393   -0.9538 H         1 <0>         0.0951
     27 H6         -1.0986   -2.5559   -1.4487 H         1 <0>         0.1150
     28 H7          0.5385   -3.3775   -1.6638 H         1 <0>         0.0795
     29 H8          1.0637   -2.9718    0.7845 H         1 <0>         0.0841
     30 H9         -0.5734   -2.1502    0.9995 H         1 <0>         0.0979
     31 H10         1.2827    0.6666   -2.1293 H         1 <0>         0.4045
     32 H11        -3.3875    2.7763   -1.9784 H         1 <0>         0.1855
     33 H12         0.1588    0.2955   -4.7220 H         1 <0>         0.1243
     34 H13        -0.5926   -1.0483   -6.6702 H         1 <0>         0.1292
     35 H14        -2.9867   -1.1525   -7.2175 H         1 <0>         0.1513
@<TRIPOS>BOND
     1    1    2 1
     2    1   23 1
     3    1   24 1
     4    1   25 1
     5    2    3 1
     6    2    6 1
     7    2    9 1
     8    3    5 1
     9    3    4 1
    10    3   26 1
    11    4    5 1
    12    4   27 1
    13    4   28 1
    14    5   29 1
    15    5   30 1
    16    6    7 2
    17    6    8 1
    18    9   10 1
    19    9   31 1
    20   10   11 2
    21   10   12 2
    22   10   13 1
    23   13   18 1
    24   13   14 2
    25   14   15 1
    26   14   32 1
    27   15   16 1
    28   15   17 1
    29   17   22 ar
    30   17   18 ar
    31   18   19 ar
    32   19   20 ar
    33   19   33 1
    34   20   21 ar
    35   20   34 1
    36   21   22 ar
    37   21   35 1
@<TRIPOS>MOLECULE
ZINC42612206
   42    42     0     0     0
SMALL
USER_CHARGES

@<TRIPOS>ATOM
      1 C1         -0.0187    1.5258    0.0104 C.3       1 <0>        -0.1596
      2 C2          0.0021   -0.0041    0.0020 C.3       1 <0>         0.1356
      3 C3          0.7421   -0.5109    1.2415 C.3       1 <0>        -0.1608
      4 N1         -1.3723   -0.5112    0.0124 N.am      1 <0>        -0.7327
      5 C4         -1.6432   -1.7342   -0.4849 C.2       1 <0>         0.4969
      6 O1         -0.7491   -2.4150   -0.9410 O.2       1 <0>        -0.5274
      7 C5         -3.0570   -2.2558   -0.4742 C.3       1 <0>         0.1211
      8 N2         -3.0875   -3.5961   -1.0648 N.am      1 <0>        -0.6255
      9 C6         -2.9062   -4.7755   -0.2149 C.3       1 <0>         0.0914
     10 C7         -3.2823   -3.7442   -2.3902 C.2       1 <0>         0.7226
     11 O2         -3.4328   -2.7654   -3.0956 O.2       1 <0>        -0.5640
     12 N3         -3.3103   -4.9772   -2.9336 N.am      1 <0>        -0.7139
     13 C8         -3.5221   -5.1382   -4.3743 C.3       1 <0>         0.1182
     14 C9         -2.3643   -4.4828   -5.1551 C.3       1 <0>        -0.1081
     15 C10        -1.3898   -5.6521   -5.4419 C.3       1 <0>        -0.1228
     16 C11        -2.3490   -6.8316   -5.7379 C.3       1 <0>        -0.1170
     17 C12        -3.5124   -6.6316   -4.7449 C.3       1 <0>        -0.1059
     18 C13        -4.8344   -4.5152   -4.7755 C.2       1 <0>         0.5042
     19 O3         -5.5437   -3.9921   -3.9331 O.co2     1 <0>        -0.6755
     20 O4         -5.1867   -4.5344   -5.9425 O.co2     1 <0>        -0.7023
     21 H1          1.0039    1.9031    0.0027 H         1 <0>         0.0693
     22 H2         -0.5459    1.8868   -0.8726 H         1 <0>         0.0628
     23 H3         -0.5289    1.8773    0.9072 H         1 <0>         0.0593
     24 H4          0.5123   -0.3556   -0.8948 H         1 <0>         0.0854
     25 H5          0.2319   -0.1594    2.1383 H         1 <0>         0.0545
     26 H6          0.7568   -1.6008    1.2356 H         1 <0>         0.0590
     27 H7          1.7647   -0.1336    1.2338 H         1 <0>         0.0618
     28 H8         -2.0874    0.0333    0.3772 H         1 <0>         0.3982
     29 H9         -3.4190   -2.3030    0.5528 H         1 <0>         0.0992
     30 H10        -3.6948   -1.5886   -1.0540 H         1 <0>         0.1147
     31 H11        -3.8762   -5.1128    0.1502 H         1 <0>         0.0512
     32 H12        -2.4387   -5.5721   -0.7936 H         1 <0>         0.0636
     33 H13        -2.2687   -4.5190    0.6313 H         1 <0>         0.0630
     34 H14        -3.1903   -5.7581   -2.3708 H         1 <0>         0.3787
     35 H15        -2.7286   -4.0523   -6.0878 H         1 <0>         0.0745
     36 H16        -1.8771   -3.7207   -4.5468 H         1 <0>         0.0646
     37 H17        -0.7679   -5.4327   -6.3098 H         1 <0>         0.0576
     38 H18        -0.7740   -5.8649   -4.5680 H         1 <0>         0.0565
     39 H19        -2.7109   -6.7805   -6.7648 H         1 <0>         0.0677
     40 H20        -1.8507   -7.7837   -5.5550 H         1 <0>         0.0560
     41 H21        -3.3501   -7.2366   -3.8528 H         1 <0>         0.0537
     42 H22        -4.4565   -6.9056   -5.2157 H         1 <0>         0.0741
@<TRIPOS>BOND
     1    1    2 1
     2    1   21 1
     3    1   22 1
     4    1   23 1
     5    2    3 1
     6    2    4 1
     7    2   24 1
     8    3   25 1
     9    3   26 1
    10    3   27 1
    11    4    5 am
    12    4   28 1
    13    5    6 2
    14    5    7 1
    15    7    8 1
    16    7   29 1
    17    7   30 1
    18    8    9 1
    19    8   10 am
    20    9   31 1
    21    9   32 1
    22    9   33 1
    23   10   11 2
    24   10   12 am
    25   12   13 1
    26   12   34 1
    27   13   17 1
    28   13   14 1
    29   13   18 1
    30   14   15 1
    31   14   35 1
    32   14   36 1
    33   15   16 1
    34   15   37 1
    35   15   38 1
    36   16   17 1
    37   16   39 1
    38   16   40 1
    39   17   41 1
    40   17   42 1
    41   18   19 2
    42   18   20 1
@<TRIPOS>MOLECULE
ZINC49500252
   39    40     0     0     0
SMALL
USER_CHARGES

@<TRIPOS>ATOM
      1 C1         -0.0187    1.5258    0.0104 C.3       1 <0>        -0.1357
      2 C2          0.0021   -0.0041    0.0020 C.3       1 <0>         0.0053
      3 C3          0.7421   -0.5109    1.2415 C.3       1 <0>        -0.1364
      4 C4         -1.4333   -0.5336    0.0129 C.3       1 <0>        -0.1247
      5 C5          0.7074   -0.4901   -1.2379 C.2       1 <0>         0.1012
      6 C6          2.0565   -0.4298   -1.3543 C.2       1 <0>        -0.3068
      7 S1          2.2815   -1.1267   -2.9827 S.3       1 <0>         0.2274
      8 C7          0.6620   -1.4165   -3.3376 C.2       1 <0>         0.2856
      9 N1          0.0392   -0.9987   -2.2569 N.2       1 <0>        -0.5674
     10 N2          0.1157   -1.9683   -4.4905 N.am      1 <0>        -0.6262
     11 C8          0.9206   -2.3473   -5.5030 C.2       1 <0>         0.7286
     12 O1          2.1245   -2.2065   -5.4078 O.2       1 <0>        -0.5291
     13 N3          0.3909   -2.8823   -6.6208 N.am      1 <0>        -0.5914
     14 C9         -1.0451   -3.1031   -6.8706 C.3       1 <0>         0.0656
     15 C10        -1.0947   -4.2412   -7.9204 C.3       1 <0>         0.0909
     16 H1         -0.9731   -5.2153   -7.4467 H         1 <0>         0.0747
     17 C11         0.1299   -3.8984   -8.8094 C.3       1 <0>        -0.0955
     18 C12         1.1491   -3.3366   -7.7957 C.3       1 <0>         0.0828
     19 H2          1.8498   -4.1192   -7.5049 H         1 <0>         0.0764
     20 C13         1.8950   -2.1770   -8.4040 C.2       1 <0>         0.4949
     21 O2          1.8280   -1.0728   -7.8915 O.co2     1 <0>        -0.6701
     22 O3          2.5656   -2.3431   -9.4086 O.co2     1 <0>        -0.6954
     23 O4         -2.3070   -4.1894   -8.6752 O.3       1 <0>        -0.5527
     24 H3          1.0039    1.9031    0.0027 H         1 <0>         0.0568
     25 H4         -0.5459    1.8868   -0.8726 H         1 <0>         0.0561
     26 H5         -0.5289    1.8773    0.9072 H         1 <0>         0.0585
     27 H6          0.2319   -0.1594    2.1383 H         1 <0>         0.0588
     28 H7          0.7568   -1.6008    1.2356 H         1 <0>         0.0556
     29 H8          1.7647   -0.1336    1.2338 H         1 <0>         0.0580
     30 H9         -1.9605   -0.1726   -0.8702 H         1 <0>         0.0619
     31 H10        -1.4185   -1.6235    0.0069 H         1 <0>         0.0527
     32 H11        -1.9435   -0.1821    0.9097 H         1 <0>         0.0478
     33 H12         2.7925   -0.0614   -0.6551 H         1 <0>         0.1858
     34 H13        -0.8448   -2.0806   -4.5664 H         1 <0>         0.4122
     35 H14        -1.5468   -3.4111   -5.9532 H         1 <0>         0.0686
     36 H15        -1.5042   -2.1986   -7.2697 H         1 <0>         0.0778
     37 H16         0.5179   -4.7946   -9.2935 H         1 <0>         0.0865
     38 H17        -0.1303   -3.1412   -9.5490 H         1 <0>         0.0859
     39 H18        -3.1067   -4.3009   -8.1430 H         1 <0>         0.3750
@<TRIPOS>BOND
     1    1    2 1
     2    1   24 1
     3    1   25 1
     4    1   26 1
     5    2    3 1
     6    2    4 1
     7    2    5 1
     8    3   27 1
     9    3   28 1
    10    3   29 1
    11    4   30 1
    12    4   31 1
    13    4   32 1
    14    5    9 1
    15    5    6 2
    16    6    7 1
    17    6   33 1
    18    7    8 1
    19    8    9 2
    20    8   10 1
    21   10   11 am
    22   10   34 1
    23   11   12 2
    24   11   13 am
    25   13   18 1
    26   13   14 1
    27   14   15 1
    28   14   35 1
    29   14   36 1
    30   15   16 1
    31   15   17 1
    32   15   23 1
    33   17   18 1
    34   17   37 1
    35   17   38 1
    36   18   19 1
    37   18   20 1
    38   20   21 2
    39   20   22 1
    40   23   39 1
@<TRIPOS>MOLECULE
ZINC62925989
   40    40     0     0     0
SMALL
USER_CHARGES

@<TRIPOS>ATOM
      1 C1          0.0763    1.8272   -0.9349 C.3       1 <0>        -0.1576
      2 C2          0.0654    0.3110   -0.7299 C.3       1 <0>        -0.0879
      3 C3          0.7896   -0.3664   -1.8951 C.3       1 <0>        -0.1427
      4 C4          2.2822    0.0370   -1.9072 C.3       1 <0>        -0.1067
      5 C5          2.9650   -1.1480   -1.1790 C.3       1 <0>         0.1236
      6 N1          2.2001   -2.3243   -1.6534 N.am      1 <0>        -0.6320
      7 C6          0.7902   -1.8951   -1.7085 C.3       1 <0>         0.0787
      8 C7          2.6921   -3.5383   -1.9707 C.2       1 <0>         0.7262
      9 O1          3.8942   -3.7169   -2.0058 O.2       1 <0>        -0.6074
     10 N2          1.8514   -4.5543   -2.2491 N.am      1 <0>        -0.6092
     11 C8          2.3821   -5.8971   -2.4972 C.3       1 <0>         0.1399
     12 C9          2.4641   -6.6651   -1.1764 C.3       1 <0>         0.0593
     13 O2          1.1469   -6.8684   -0.6611 O.3       1 <0>        -0.5680
     14 C10         0.4070   -4.3159   -2.3037 C.3       1 <0>         0.0868
     15 C11         0.0206   -3.8443   -3.7069 C.3       1 <0>         0.0486
     16 O3          0.2665   -4.8926   -4.6464 O.3       1 <0>        -0.5781
     17 C12         0.1351    0.0012   -3.2018 C.2       1 <0>         0.5103
     18 O4          0.0632    1.1704   -3.5399 O.co2     1 <0>        -0.6817
     19 O5         -0.3224   -0.8706   -3.9209 O.co2     1 <0>        -0.6919
     20 H1          1.1065    2.1807   -0.9772 H         1 <0>         0.0455
     21 H2         -0.4302    2.0712   -1.8687 H         1 <0>         0.0958
     22 H3         -0.4396    2.3097   -0.1048 H         1 <0>         0.0298
     23 H4          0.5719    0.0669    0.2039 H         1 <0>         0.0438
     24 H5         -0.9648   -0.0425   -0.6877 H         1 <0>         0.0520
     25 H6          2.6498    0.1253   -2.9295 H         1 <0>         0.0670
     26 H7          2.4352    0.9667   -1.3591 H         1 <0>         0.0782
     27 H8          4.0122   -1.2268   -1.4710 H         1 <0>         0.0764
     28 H9          2.8730   -1.0397   -0.0983 H         1 <0>         0.0619
     29 H10         0.2861   -2.1557   -0.7778 H         1 <0>         0.0489
     30 H11         0.2895   -2.3721   -2.5510 H         1 <0>         0.1287
     31 H12         1.7232   -6.4268   -3.1852 H         1 <0>         0.0893
     32 H13         3.3774   -5.8193   -2.9346 H         1 <0>         0.0927
     33 H14         2.9408   -7.6305   -1.3465 H         1 <0>         0.0504
     34 H15         3.0506   -6.0917   -0.4585 H         1 <0>         0.0463
     35 H16         1.1225   -7.3503    0.1769 H         1 <0>         0.3721
     36 H17        -0.1228   -5.2400   -2.0722 H         1 <0>         0.0857
     37 H18         0.1373   -3.5505   -1.5760 H         1 <0>         0.1117
     38 H19        -1.0373   -3.5821   -3.7236 H         1 <0>         0.0589
     39 H20         0.6156   -2.9707   -3.9733 H         1 <0>         0.0799
     40 H21         0.0437   -4.6632   -5.5590 H         1 <0>         0.3749
@<TRIPOS>BOND
     1    1    2 1
     2    1   20 1
     3    1   21 1
     4    1   22 1
     5    2    3 1
     6    2   23 1
     7    2   24 1
     8    3    7 1
     9    3    4 1
    10    3   17 1
    11    4    5 1
    12    4   25 1
    13    4   26 1
    14    5    6 1
    15    5   27 1
    16    5   28 1
    17    6    7 1
    18    6    8 am
    19    7   29 1
    20    7   30 1
    21    8    9 2
    22    8   10 am
    23   10   11 1
    24   10   14 1
    25   11   12 1
    26   11   31 1
    27   11   32 1
    28   12   13 1
    29   12   33 1
    30   12   34 1
    31   13   35 1
    32   14   15 1
    33   14   36 1
    34   14   37 1
    35   15   16 1
    36   15   38 1
    37   15   39 1
    38   16   40 1
    39   17   18 2
    40   17   19 1
@<TRIPOS>MOLECULE
ZINC35049977
   26    26     0     0     0
SMALL
USER_CHARGES

@<TRIPOS>ATOM
      1 C1         -0.0167    1.3777    0.0096 C.ar      1 <0>        -0.1479
      2 C2          1.1847    2.0699    0.0019 C.ar      1 <0>         0.0201
      3 C3          2.3654    1.3425   -0.0133 C.ar      1 <0>        -0.1318
      4 C4          2.3054   -0.0391   -0.0202 C.ar      1 <0>         0.2443
      5 N1          1.1441   -0.6635   -0.0124 N.ar      1 <0>        -0.3388
      6 C5          0.0021   -0.0041    0.0020 C.ar      1 <0>         0.1348
      7 C6          1.1219   -2.1283   -0.0206 C.3       1 <0>         0.0985
      8 C7          1.1282   -2.6464    1.4190 C.3       1 <0>        -1.3039
      9 P1          0.9509   -4.4608    1.4125 P.3       1 <0>         2.2673
     10 O1         -0.3820   -4.8456    0.7325 O.2       1 <0>        -1.0978
     11 O2          2.1271   -5.0904    0.6334 O.3       1 <0>        -1.0767
     12 O3          0.9576   -5.0061    2.9274 O.3       1 <0>        -0.8823
     13 P2          2.7009   -2.1924    2.2214 P.3       1 <0>         2.2488
     14 O4          2.8512   -0.6548    2.2268 O.2       1 <0>        -1.0735
     15 O5          2.7073   -2.7157    3.6751 O.3       1 <0>        -1.0674
     16 O6          3.9266   -2.8486    1.4095 O.3       1 <0>        -0.8813
     17 I1          4.2162    2.3241   -0.0264 I         1 <0>         0.0419
     18 H1         -0.9553    1.9116    0.0259 H         1 <0>         0.1793
     19 H2          1.2007    3.1498    0.0072 H         1 <0>         0.1677
     20 H3          3.2201   -0.6131   -0.0323 H         1 <0>         0.1951
     21 H4         -0.9295   -0.5504    0.0083 H         1 <0>         0.1966
     22 H5          0.2216   -2.4752   -0.5277 H         1 <0>         0.1288
     23 H6          2.0013   -2.5021   -0.5451 H         1 <0>         0.1306
     24 H7          0.2984   -2.2022    1.9687 H         1 <0>         0.1254
     25 H8          0.8668   -5.9660    3.0003 H         1 <0>         0.4098
     26 H9          4.7966   -2.6482    1.7810 H         1 <0>         0.4125
@<TRIPOS>BOND
     1    1    6 ar
     2    1    2 ar
     3    1   18 1
     4    2    3 ar
     5    2   19 1
     6    3    4 ar
     7    3   17 1
     8    4    5 ar
     9    4   20 1
    10    5    6 ar
    11    5    7 1
    12    6   21 1
    13    7    8 1
    14    7   22 1
    15    7   23 1
    16    8    9 1
    17    8   13 1
    18    8   24 1
    19    9   10 2
    20    9   11 1
    21    9   12 1
    22   12   25 1
    23   13   14 2
    24   13   15 1
    25   13   16 1
    26   16   26 1
@<TRIPOS>MOLECULE
ZINC40551763
   42    43     0     0     0
SMALL
USER_CHARGES

@<TRIPOS>ATOM
      1 C1         -0.0187    1.5258    0.0104 C.3       1 <0>        -0.1370
      2 C2          0.0021   -0.0041    0.0020 C.3       1 <0>         0.1467
      3 C3          0.7421   -0.5109    1.2415 C.3       1 <0>        -0.1478
      4 C4         -0.0071   -1.4702    2.1685 C.3       1 <0>        -0.1784
      5 C5          0.2483   -0.0266    2.6063 C.3       1 <0>        -0.1608
      6 C6         -1.4117   -0.5257    0.0127 C.2       1 <0>         0.5075
      7 O1         -1.8097   -1.2271   -0.9017 O.co2     1 <0>        -0.6744
      8 O2         -2.1576   -0.2463    0.9358 O.co2     1 <0>        -0.6979
      9 N1          0.6878   -0.4765   -1.2033 N.am      1 <0>        -0.7186
     10 C7          0.2113   -0.1507   -2.4212 C.2       1 <0>         0.7152
     11 O3         -0.7877    0.5354   -2.5195 O.2       1 <0>        -0.5668
     12 N2          0.8421   -0.5853   -3.5301 N.am      1 <0>        -0.7583
     13 C8          0.3242   -0.2311   -4.8539 C.3       1 <0>         0.1478
     14 C9          1.2179   -0.8463   -5.9326 C.3       1 <0>         0.0471
     15 N3          0.6986   -0.4911   -7.2600 N.3       1 <0>        -0.5328
     16 C10        -0.6093   -1.1184   -7.4992 C.3       1 <0>         0.0103
     17 C11        -1.1397   -0.6752   -8.8652 C.3       1 <0>         0.0639
     18 O4         -0.1845   -1.0132   -9.8745 O.3       1 <0>        -0.3881
     19 C12         1.1006   -0.4186   -9.6731 C.3       1 <0>         0.0640
     20 C13         1.6537   -0.8593   -8.3152 C.3       1 <0>         0.0185
     21 H1          1.0039    1.9031    0.0027 H         1 <0>         0.0338
     22 H2         -0.5459    1.8868   -0.8726 H         1 <0>         0.0688
     23 H3         -0.5289    1.8773    0.9072 H         1 <0>         0.0619
     24 H4          1.8144   -0.6633    1.1193 H         1 <0>         0.0905
     25 H5         -1.0272   -1.7403    1.8953 H         1 <0>         0.1187
     26 H6          0.5723   -2.2541    2.6563 H         1 <0>         0.0753
     27 H7          0.9958    0.1392    3.3821 H         1 <0>         0.0791
     28 H8         -0.6037    0.6530    2.6211 H         1 <0>         0.1071
     29 H9          1.4848   -1.0239   -1.1249 H         1 <0>         0.3788
     30 H10         1.6391   -1.1327   -3.4516 H         1 <0>         0.3854
     31 H11        -0.6908   -0.6138   -4.9612 H         1 <0>         0.0628
     32 H12         0.3170    0.8534   -4.9630 H         1 <0>         0.0689
     33 H13         2.2329   -0.4637   -5.8252 H         1 <0>         0.0803
     34 H14         1.2251   -1.9308   -5.8235 H         1 <0>         0.0412
     35 H15        -0.5008   -2.2029   -7.4853 H         1 <0>         0.0449
     36 H16        -1.3078   -0.8119   -6.7206 H         1 <0>         0.0962
     37 H17        -2.0822   -1.1822   -9.0717 H         1 <0>         0.0994
     38 H18        -1.2990    0.4031   -8.8613 H         1 <0>         0.0617
     39 H19         1.7783   -0.7402  -10.4639 H         1 <0>         0.0964
     40 H20         1.0064    0.6671   -9.6927 H         1 <0>         0.0601
     41 H21         2.6071   -0.3636   -8.1323 H         1 <0>         0.0861
     42 H22         1.7984   -1.9397   -8.3144 H         1 <0>         0.0427
@<TRIPOS>BOND
     1    1    2 1
     2    1   21 1
     3    1   22 1
     4    1   23 1
     5    2    3 1
     6    2    6 1
     7    2    9 1
     8    3    5 1
     9    3    4 1
    10    3   24 1
    11    4    5 1
    12    4   25 1
    13    4   26 1
    14    5   27 1
    15    5   28 1
    16    6    7 2
    17    6    8 1
    18    9   10 am
    19    9   29 1
    20   10   11 2
    21   10   12 am
    22   12   13 1
    23   12   30 1
    24   13   14 1
    25   13   31 1
    26   13   32 1
    27   14   15 1
    28   14   33 1
    29   14   34 1
    30   15   20 1
    31   15   16 1
    32   16   17 1
    33   16   35 1
    34   16   36 1
    35   17   18 1
    36   17   37 1
    37   17   38 1
    38   18   19 1
    39   19   20 1
    40   19   39 1
    41   19   40 1
    42   20   41 1
    43   20   42 1
@<TRIPOS>MOLECULE
ZINC42439973
   40    39     0     0     0
SMALL
USER_CHARGES

@<TRIPOS>ATOM
      1 C1         -0.0187    1.5258    0.0104 C.3       1 <0>        -0.1801
      2 C2          0.0021   -0.0041    0.0020 C.3       1 <0>         0.1106
      3 H1         -1.0205   -0.3814    0.0098 H         1 <0>         0.0534
      4 C3          0.7421   -0.5109    1.2415 C.3       1 <0>         0.0978
      5 H2          1.7647   -0.1336    1.2338 H         1 <0>         0.0867
      6 C4          0.7625   -2.0177    1.2333 C.2       1 <0>         0.4989
      7 O1          1.6800   -2.6120    0.6933 O.co2     1 <0>        -0.6825
      8 O2         -0.1385   -2.6426    1.7665 O.co2     1 <0>        -0.6995
      9 N1          0.0564   -0.0384    2.4469 N.am      1 <0>        -0.7041
     10 C5          0.7380    0.0932    3.6021 C.2       1 <0>         0.7163
     11 O3          1.9220   -0.1802    3.6439 O.2       1 <0>        -0.5858
     12 N2          0.1071    0.5278    4.7110 N.am      1 <0>        -0.6213
     13 C6         -1.3195    0.8572    4.6606 C.3       1 <0>         0.0890
     14 C7          0.8480    0.6709    5.9667 C.3       1 <0>         0.1202
     15 C8          1.4237    2.0608    6.0547 C.2       1 <0>         0.4966
     16 O4          1.2339    2.8538    5.1569 O.2       1 <0>        -0.5286
     17 N3          2.1496    2.4226    7.1311 N.am      1 <0>        -0.7300
     18 C9          2.7093    3.7738    7.2167 C.3       1 <0>         0.1228
     19 C10         3.4831    3.9232    8.5281 C.3       1 <0>         0.0491
     20 O5          4.6115    3.0465    8.5179 O.3       1 <0>        -0.3865
     21 C11         5.4063    3.1083    9.7039 C.3       1 <0>         0.0309
     22 O6          0.6709   -0.4649   -1.1737 O.3       1 <0>        -0.5410
     23 H3          1.0039    1.9031    0.0027 H         1 <0>         0.0620
     24 H4         -0.5459    1.8868   -0.8726 H         1 <0>         0.0524
     25 H5         -0.5289    1.8773    0.9072 H         1 <0>         0.0616
     26 H6         -0.8882    0.1796    2.4135 H         1 <0>         0.3873
     27 H7         -1.9060   -0.0309    4.8958 H         1 <0>         0.0572
     28 H8         -1.5376    1.6397    5.3874 H         1 <0>         0.0665
     29 H9         -1.5763    1.2079    3.6610 H         1 <0>         0.0656
     30 H10         0.1745    0.5027    6.8071 H         1 <0>         0.1038
     31 H11         1.6563   -0.0598    5.9969 H         1 <0>         0.1156
     32 H12         2.3015    1.7884    7.8492 H         1 <0>         0.4024
     33 H13         3.3828    3.9420    6.3763 H         1 <0>         0.0751
     34 H14         1.9010    4.5045    7.1864 H         1 <0>         0.0807
     35 H15         3.8240    4.9531    8.6335 H         1 <0>         0.0648
     36 H16         2.8326    3.6684    9.3648 H         1 <0>         0.0565
     37 H17         5.7871    4.1214    9.8337 H         1 <0>         0.0408
     38 H18         4.7957    2.8367   10.5650 H         1 <0>         0.0414
     39 H19         6.2422    2.4141    9.6177 H         1 <0>         0.0877
     40 H20         0.2557   -0.1806   -1.9994 H         1 <0>         0.3656
@<TRIPOS>BOND
     1    1    2 1
     2    1   23 1
     3    1   24 1
     4    1   25 1
     5    2    3 1
     6    2    4 1
     7    2   22 1
     8    4    5 1
     9    4    6 1
    10    4    9 1
    11    6    7 2
    12    6    8 1
    13    9   10 am
    14    9   26 1
    15   10   11 2
    16   10   12 am
    17   12   13 1
    18   12   14 1
    19   13   27 1
    20   13   28 1
    21   13   29 1
    22   14   15 1
    23   14   30 1
    24   14   31 1
    25   15   16 2
    26   15   17 am
    27   17   18 1
    28   17   32 1
    29   18   19 1
    30   18   33 1
    31   18   34 1
    32   19   20 1
    33   19   35 1
    34   19   36 1
    35   20   21 1
    36   21   37 1
    37   21   38 1
    38   21   39 1
    39   22   40 1
@<TRIPOS>MOLECULE
ZINC49693197
   32    32     0     0     0
SMALL
USER_CHARGES

@<TRIPOS>ATOM
      1 C1          0.5406   -0.7524    1.1387 C.3       1 <0>         0.1407
      2 C2         -0.3475   -0.5223    2.3668 C.3       1 <0>        -0.4609
      3 S1         -0.4328    1.2637    2.6963 S.o       1 <0>         1.2353
      4 O1         -1.4264    1.5169    3.6801 O.2       1 <0>        -0.8601
      5 C3         -0.9690    1.9533    1.1018 C.3       1 <0>        -0.4557
      6 C4         -0.0147    1.4597    0.0084 C.3       1 <0>         0.1548
      7 N1          0.0036   -0.0039    0.0013 N.am      1 <0>        -0.6452
      8 C5         -0.4797   -0.6705   -1.0658 C.2       1 <0>         0.7189
      9 O2         -1.0109   -0.0609   -1.9739 O.2       1 <0>        -0.5854
     10 N2         -0.3739   -2.0127   -1.1264 N.am      1 <0>        -0.7007
     11 C6         -0.7975   -2.7271   -2.3333 C.3       1 <0>         0.1099
     12 H1         -0.5757   -2.1204   -3.2112 H         1 <0>         0.0890
     13 C7         -0.0462   -4.0565   -2.4290 C.3       1 <0>        -0.1344
     14 C8          1.4248   -3.7897   -2.6192 C.2       1 <0>         0.5123
     15 O3          1.8321   -2.6486   -2.6729 O.2       1 <0>        -0.5317
     16 N3          2.2876   -4.8191   -2.7297 N.am      1 <0>        -0.8636
     17 C9         -2.2796   -2.9914   -2.2665 C.2       1 <0>         0.4899
     18 O4         -2.9226   -2.6176   -1.3004 O.co2     1 <0>        -0.6806
     19 O5         -2.8358   -3.5789   -3.1786 O.co2     1 <0>        -0.6993
     20 H2          1.5531   -0.4104    1.3533 H         1 <0>         0.0857
     21 H3          0.5595   -1.8153    0.8979 H         1 <0>         0.0845
     22 H4         -1.3487   -0.9064    2.1713 H         1 <0>         0.0958
     23 H5          0.0810   -1.0333    3.2290 H         1 <0>         0.1216
     24 H6         -1.9826    1.6188    0.8810 H         1 <0>         0.0930
     25 H7         -0.9421    3.0420    1.1466 H         1 <0>         0.1211
     26 H8         -0.3540    1.8235   -0.9614 H         1 <0>         0.1031
     27 H9          0.9895    1.8346    0.2061 H         1 <0>         0.0813
     28 H10        -0.0175   -2.5057   -0.3709 H         1 <0>         0.3818
     29 H11        -0.1966   -4.6258   -1.5117 H         1 <0>         0.0906
     30 H12        -0.4245   -4.6274   -3.2770 H         1 <0>         0.1144
     31 H13         1.9618   -5.7318   -2.6868 H         1 <0>         0.3993
     32 H14         3.2344   -4.6474   -2.8521 H         1 <0>         0.3945
@<TRIPOS>BOND
     1    1    7 1
     2    1    2 1
     3    1   20 1
     4    1   21 1
     5    2    3 1
     6    2   22 1
     7    2   23 1
     8    3    4 2
     9    3    5 1
    10    5    6 1
    11    5   24 1
    12    5   25 1
    13    6    7 1
    14    6   26 1
    15    6   27 1
    16    7    8 am
    17    8    9 2
    18    8   10 am
    19   10   11 1
    20   10   28 1
    21   11   12 1
    22   11   13 1
    23   11   17 1
    24   13   14 1
    25   13   29 1
    26   13   30 1
    27   14   15 2
    28   14   16 am
    29   16   31 1
    30   16   32 1
    31   17   18 2
    32   17   19 1
@<TRIPOS>MOLECULE
ZINC13099491
   32    33     0     0     0
SMALL
USER_CHARGES

@<TRIPOS>ATOM
      1 C1         -0.0164    1.3615    0.0095 C.ar      1 <0>        -0.1642
      2 C2          1.2008    2.0788    0.0018 C.ar      1 <0>         0.3148
      3 N1          1.2016    3.4090    0.0094 N.pl3     1 <0>        -0.6091
      4 C3          2.2336    4.2265    0.0036 C.2       1 <0>         0.5147
      5 N2          3.4848    3.8357   -0.0114 N.2       1 <0>        -0.7891
      6 S1          3.7321    2.1802   -0.0229 S.o       1 <0>         2.5689
      7 C4          2.4103    1.3446   -0.0138 C.ar      1 <0>        -0.8631
      8 C5          2.4124   -0.0098   -0.0208 C.ar      1 <0>         0.1784
      9 C6          1.2044   -0.7004   -0.0126 C.ar      1 <0>        -0.7137
     10 C7          0.0021   -0.0041    0.0020 C.ar      1 <0>         0.1571
     11 Cl1        -1.4960   -0.8813    0.0122 Cl        1 <0>         0.0308
     12 S2          1.1994   -2.4624   -0.0221 S.o2      1 <0>         2.6998
     13 O1          0.2922   -2.8604   -1.0409 O.2       1 <0>        -0.9248
     14 O2          2.5599   -2.8724   -0.0108 O.2       1 <0>        -0.9422
     15 N3          0.5437   -2.9579    1.4155 N.pl3     1 <0>        -1.2419
     16 O3          4.4754    1.8406   -1.1854 O.2       1 <0>        -0.8711
     17 O4          4.5539    1.8032    1.2015 O.3       1 <0>        -0.8249
     18 C8          1.9586    5.7081    0.0145 C.3       1 <0>        -0.0787
     19 C9          3.2837    6.4729    0.0055 C.3       1 <0>        -0.1784
     20 C10         3.0086    7.9546    0.0163 C.2       1 <0>         0.4904
     21 O5          1.8592    8.3611    0.0300 O.co2     1 <0>        -0.6945
     22 O6          3.9354    8.7467    0.0114 O.co2     1 <0>        -0.6796
     23 H1         -0.9577    1.8909    0.0258 H         1 <0>         0.1889
     24 H2          3.3469   -0.5511   -0.0330 H         1 <0>         0.1933
     25 H3          0.2512   -2.3015    2.0671 H         1 <0>         0.4173
     26 H4          0.4521   -3.9046    1.6061 H         1 <0>         0.4314
     27 H5          5.4214    2.2288    1.2392 H         1 <0>         0.4868
     28 H6          1.3782    5.9764   -0.8683 H         1 <0>         0.1425
     29 H7          1.3959    5.9666    0.9115 H         1 <0>         0.1431
     30 H8          3.8640    6.2046    0.8882 H         1 <0>         0.0782
     31 H9          3.8463    6.2144   -0.8916 H         1 <0>         0.0805
     32 H10         0.3286    3.8315    0.0204 H         1 <0>         0.4584
@<TRIPOS>BOND
     1    1   10 ar
     2    1    2 ar
     3    1   23 1
     4    2    7 ar
     5    2    3 2
     6    3    4 1
     7    3   32 1
     8    4    5 2
     9    4   18 1
    10    5    6 1
    11    6    7 2
    12    6   16 2
    13    6   17 1
    14    7    8 ar
    15    8    9 ar
    16    8   24 1
    17    9   10 ar
    18    9   12 1
    19   10   11 1
    20   12   13 2
    21   12   14 2
    22   12   15 1
    23   15   25 1
    24   15   26 1
    25   17   27 1
    26   18   19 1
    27   18   28 1
    28   18   29 1
    29   19   20 1
    30   19   30 1
    31   19   31 1
    32   20   21 2
    33   20   22 1
@<TRIPOS>MOLECULE
ZINC05234424
   39    39     0     0     0
SMALL
USER_CHARGES
N-[4,5-dihydroxy-6-(hydroxymethyl)-2-isopropoxy-tetrahydropyran-3-yl]acetamide
@<TRIPOS>ATOM
      1 C1         -3.5339   -0.0578    0.9464 C.3       1 <0>        -0.1460
      2 C2         -2.0391   -0.1889    1.2449 C.3       1 <0>         0.0760
      3 C3         -1.8189   -1.3077    2.2650 C.3       1 <0>        -0.1735
      4 O1         -1.3380   -0.4990    0.0390 O.3       1 <0>        -0.3300
      5 C4          0.0021   -0.0041    0.0020 C.3       1 <0>         0.2475
      6 H1          0.5471   -0.3650    0.8742 H         1 <0>         0.0566
      7 C5          0.6933   -0.4966   -1.2721 C.3       1 <0>         0.1366
      8 H2          0.1261   -0.1701   -2.1437 H         1 <0>         0.1131
      9 C6          2.1083    0.0868   -1.3342 C.3       1 <0>         0.1141
     10 H3          2.6910   -0.2792   -0.4889 H         1 <0>         0.0730
     11 C7          2.0216    1.6150   -1.2734 C.3       1 <0>         0.0481
     12 H4          1.4813    1.9841   -2.1451 H         1 <0>         0.0842
     13 C8          1.2791    2.0260    0.0007 C.3       1 <0>         0.0699
     14 H5          1.8410    1.6916    0.8728 H         1 <0>         0.0791
     15 O2         -0.0173    1.4248    0.0099 O.3       1 <0>        -0.3799
     16 C9          1.1357    3.5487    0.0390 C.3       1 <0>         0.0818
     17 O3          0.5461    3.9406    1.2803 O.3       1 <0>        -0.5613
     18 O4          3.3393    2.1678   -1.2590 O.3       1 <0>        -0.5553
     19 O5          2.7358   -0.3099   -2.5551 O.3       1 <0>        -0.5467
     20 N1          0.7674   -1.9597   -1.2545 N.am      1 <0>        -0.7171
     21 C10        -0.2755   -2.6925   -1.6924 C.2       1 <0>         0.5142
     22 O6         -1.2753   -2.1408   -2.1010 O.2       1 <0>        -0.5195
     23 C11        -0.1993   -4.1975   -1.6744 C.3       1 <0>        -0.1688
     24 H6         -3.9072   -0.9981    0.5407 H         1 <0>         0.0632
     25 H7         -4.0688    0.1788    1.8662 H         1 <0>         0.0687
     26 H8         -3.6908    0.7392    0.2196 H         1 <0>         0.0627
     27 H9         -1.6658    0.7514    1.6506 H         1 <0>         0.0719
     28 H10        -2.1922   -2.2479    1.8593 H         1 <0>         0.0633
     29 H11        -0.7539   -1.4010    2.4777 H         1 <0>         0.0518
     30 H12        -2.3537   -1.0711    3.1849 H         1 <0>         0.0679
     31 H13         2.1191    4.0089   -0.0575 H         1 <0>         0.0643
     32 H14         0.4998    3.8746   -0.7841 H         1 <0>         0.0612
     33 H15         0.4249    4.8954    1.3741 H         1 <0>         0.3853
     34 H16         3.3602    3.1338   -1.2211 H         1 <0>         0.3873
     35 H17         3.6367    0.0250   -2.6613 H         1 <0>         0.3915
     36 H18         1.5670   -2.4009   -0.9278 H         1 <0>         0.4015
     37 H19         0.7673   -4.5076   -1.2774 H         1 <0>         0.0737
     38 H20        -0.9952   -4.5940   -1.0439 H         1 <0>         0.0946
     39 H21        -0.3149   -4.5793   -2.6887 H         1 <0>         0.0950
@<TRIPOS>BOND
     1    1    2 1
     2    1   24 1
     3    1   25 1
     4    1   26 1
     5    2    3 1
     6    2    4 1
     7    2   27 1
     8    3   28 1
     9    3   29 1
    10    3   30 1
    11    4    5 1
    12    5    6 1
    13    5   15 1
    14    5    7 1
    15    7    8 1
    16    7    9 1
    17    7   20 1
    18    9   10 1
    19    9   11 1
    20    9   19 1
    21   11   12 1
    22   11   13 1
    23   11   18 1
    24   13   14 1
    25   13   15 1
    26   13   16 1
    27   16   17 1
    28   16   31 1
    29   16   32 1
    30   17   33 1
    31   18   34 1
    32   19   35 1
    33   20   21 am
    34   20   36 1
    35   21   22 2
    36   21   23 1
    37   23   37 1
    38   23   38 1
    39   23   39 1
@<TRIPOS>MOLECULE
ZINC18276287
   34    35     0     0     0
SMALL
USER_CHARGES
2-imino-1,3-dimethyl-5-[(2,3,4-trihydroxyphenyl)methylene]hexahydropyrimidine-4,6-dione
@<TRIPOS>ATOM
      1 C1          7.3234    5.1474   -4.8190 C.3       1 <0>         0.0874
      2 N1          6.6473    4.7102   -3.5950 N.am      1 <0>        -0.5388
      3 C2          5.6195    3.8377   -3.6733 C.2       1 <0>         0.5755
      4 O1          5.2342    3.4210   -4.7494 O.2       1 <0>        -0.4985
      5 C3          4.9765    3.4041   -2.4184 C.2       1 <0>        -0.2917
      6 C4          3.7677    2.7312   -2.4250 C.2       1 <0>         0.1398
      7 C5          3.0840    2.4914   -1.2080 C.ar      1 <0>        -0.1642
      8 C6          2.9584    3.5157   -0.2548 C.ar      1 <0>         0.0100
      9 C7          2.2995    3.2833    0.9163 C.ar      1 <0>        -0.1735
     10 C8          1.7409    2.0343    1.1767 C.ar      1 <0>         0.2066
     11 C9          1.8587    1.0044    0.2489 C.ar      1 <0>        -0.0535
     12 C10         2.5259    1.2245   -0.9471 C.ar      1 <0>         0.1600
     13 O2          2.6405    0.2264   -1.8593 O.3       1 <0>        -0.4864
     14 O3          1.3155   -0.2155    0.5119 O.3       1 <0>        -0.5058
     15 O4          1.0825    1.8192    2.3441 O.3       1 <0>        -0.4968
     16 C11         5.6703    3.7217   -1.1557 C.2       1 <0>         0.5644
     17 O5          5.3278    3.2070   -0.1079 O.2       1 <0>        -0.4863
     18 N2          6.6984    4.5947   -1.1937 N.am      1 <0>        -0.5854
     19 C12         7.0647    5.1921   -2.3768 C.2       1 <0>         0.6016
     20 N3          7.8288    6.2454   -2.3424 N.2       1 <0>        -0.7339
     21 C13         7.4263    4.9143    0.0368 C.3       1 <0>         0.0732
     22 H1          6.8571    4.6618   -5.6889 H         1 <0>         0.0976
     23 H2          8.3865    4.8693   -4.7700 H         1 <0>         0.0746
     24 H3          7.2342    6.2394   -4.9171 H         1 <0>         0.0828
     25 H4          3.3376    2.3824   -3.3754 H         1 <0>         0.1585
     26 H5          3.3848    4.4887   -0.4496 H         1 <0>         0.1299
     27 H6          2.2062    4.0747    1.6452 H         1 <0>         0.1410
     28 H7          2.2033   -0.7614   -1.6516 H         1 <0>         0.4239
     29 H8          1.4092   -1.0292   -0.2224 H         1 <0>         0.4215
     30 H9          0.6403    0.8338    2.5526 H         1 <0>         0.4444
     31 H10         8.1721    6.6445   -1.3766 H         1 <0>         0.3651
     32 H11         8.2242    5.6378   -0.1866 H         1 <0>         0.0897
     33 H12         7.8691    3.9960    0.4499 H         1 <0>         0.0829
     34 H13         6.7321    5.3490    0.7710 H         1 <0>         0.0842
@<TRIPOS>BOND
     1    1    2 1
     2    1   22 1
     3    1   23 1
     4    1   24 1
     5    2   19 1
     6    2    3 am
     7    3    4 2
     8    3    5 1
     9    5    6 2
    10    5   16 1
    11    6    7 1
    12    6   25 1
    13    7   12 ar
    14    7    8 ar
    15    8    9 ar
    16    8   26 1
    17    9   10 ar
    18    9   27 1
    19   10   11 ar
    20   10   15 1
    21   11   12 ar
    22   11   14 1
    23   12   13 1
    24   13   28 1
    25   14   29 1
    26   15   30 1
    27   16   17 2
    28   16   18 am
    29   18   19 1
    30   18   21 1
    31   19   20 2
    32   20   31 1
    33   21   32 1
    34   21   33 1
    35   21   34 1
@<TRIPOS>MOLECULE
ZINC40558470
   40    41     0     0     0
SMALL
USER_CHARGES

@<TRIPOS>ATOM
      1 C1          1.6065    1.8068    0.0145 C.3       1 <0>        -0.1323
      2 C2          0.0635    1.6452   -0.0077 C.3       1 <0>        -0.1275
      3 C3         -0.1330    0.1551    0.3425 C.3       1 <0>         0.0992
      4 H1         -0.2689   -0.4254   -0.5701 H         1 <0>         0.1126
      5 N1          1.0794   -0.2921    1.0436 N.am      1 <0>        -0.6153
      6 C4          2.0028    0.8504    1.1669 C.3       1 <0>         0.1204
      7 C5          1.3083   -1.5398    1.4991 C.2       1 <0>         0.7440
      8 O1          2.4092   -1.8417    1.9176 O.2       1 <0>        -0.5636
      9 N2          0.3168   -2.4527    1.4907 N.am      1 <0>        -0.6256
     10 C6         -0.8954   -2.2455    0.6835 C.3       1 <0>         0.0305
     11 C7         -1.1456   -3.5068   -0.1497 C.3       1 <0>        -0.0259
     12 N3         -1.2008   -4.6754    0.7376 N.4       1 <0>        -0.3564
     13 C8          0.1043   -4.8783    1.3792 C.3       1 <0>        -0.0231
     14 C9          0.4189   -3.6875    2.2837 C.3       1 <0>         0.1156
     15 C10        -1.5494   -5.8675   -0.0469 C.3       1 <0>        -0.0844
     16 C11        -1.7269   -7.0436    0.8786 C.2       1 <0>         0.4870
     17 O2         -1.5769   -6.9018    2.0802 O.co2     1 <0>        -0.6702
     18 O3         -2.0204   -8.1368    0.4257 O.co2     1 <0>        -0.6379
     19 C12        -1.3352   -0.0071    1.2366 C.2       1 <0>         0.4985
     20 O4         -1.2041   -0.4647    2.3521 O.2       1 <0>        -0.5158
     21 N4         -2.5562    0.3565    0.7966 N.am      1 <0>        -0.8526
     22 H2          2.0466    1.4848   -0.9293 H         1 <0>         0.0842
     23 H3          1.8884    2.8342    0.2449 H         1 <0>         0.0958
     24 H4         -0.4019    2.2826    0.7441 H         1 <0>         0.0873
     25 H5         -0.3330    1.8638   -0.9992 H         1 <0>         0.0979
     26 H6          3.0343    0.5192    1.0472 H         1 <0>         0.0905
     27 H7          1.8709    1.3425    2.1305 H         1 <0>         0.0729
     28 H8         -1.7465   -2.0656    1.3403 H         1 <0>         0.1029
     29 H9         -0.7530   -1.3914    0.0214 H         1 <0>         0.1424
     30 H10        -2.0921   -3.4092   -0.6816 H         1 <0>         0.1323
     31 H11        -0.3361   -3.6340   -0.8685 H         1 <0>         0.1233
     32 H12         0.0789   -5.7913    1.9739 H         1 <0>         0.1708
     33 H13         0.8760   -4.9640    0.6141 H         1 <0>         0.1161
     34 H14         1.4299   -3.7864    2.6791 H         1 <0>         0.1298
     35 H15        -0.2972   -3.6557    3.1049 H         1 <0>         0.0920
     36 H16        -2.4783   -5.6876   -0.5880 H         1 <0>         0.1243
     37 H17        -0.7507   -6.0814   -0.7571 H         1 <0>         0.1228
     38 H18        -2.6611    0.7224   -0.0955 H         1 <0>         0.4051
     39 H19        -3.3300    0.2521    1.3721 H         1 <0>         0.4091
     40 H20        -1.9029   -4.5251    1.4464 H         1 <0>         0.4231
@<TRIPOS>BOND
     1    1    6 1
     2    1    2 1
     3    1   22 1
     4    1   23 1
     5    2    3 1
     6    2   24 1
     7    2   25 1
     8    3    4 1
     9    3    5 1
    10    3   19 1
    11    5    6 1
    12    5    7 am
    13    6   26 1
    14    6   27 1
    15    7    8 2
    16    7    9 am
    17    9   14 1
    18    9   10 1
    19   10   11 1
    20   10   28 1
    21   10   29 1
    22   11   12 1
    23   11   30 1
    24   11   31 1
    25   12   13 1
    26   12   15 1
    27   12   40 1
    28   13   14 1
    29   13   32 1
    30   13   33 1
    31   14   34 1
    32   14   35 1
    33   15   16 1
    34   15   36 1
    35   15   37 1
    36   16   17 2
    37   16   18 1
    38   19   20 2
    39   19   21 am
    40   21   38 1
    41   21   39 1
@<TRIPOS>MOLECULE
ZINC52096328
   24    24     0     0     0
SMALL
USER_CHARGES

@<TRIPOS>ATOM
      1 C1         -0.0178    1.4608    0.0101 C.3       1 <0>         0.0636
      2 N1          0.0021   -0.0041    0.0020 N.pl3     1 <0>        -0.4542
      3 C2          0.0081   -0.8102   -1.1042 C.2       1 <0>         0.0704
      4 C3          0.0282   -2.0813   -0.6599 C.2       1 <0>        -0.5599
      5 N2          0.0342   -2.0521    0.6810 N.2       1 <0>        -0.4321
      6 C4          0.0238   -0.8111    1.0845 C.2       1 <0>         0.1919
      7 S1          0.0437   -3.5291   -1.6641 S.o2      1 <0>         2.7327
      8 O1         -1.3047   -3.9648   -1.7694 O.2       1 <0>        -0.9536
      9 O2          0.8371   -3.2248   -2.8031 O.2       1 <0>        -0.9497
     10 N3          0.8554   -4.7009   -0.8213 N.pl3     1 <0>        -1.0956
     11 C5          0.3020   -5.2171    0.4331 C.3       1 <0>         0.1319
     12 C6          1.0072   -6.4962    0.8045 C.2       1 <0>         0.2775
     13 S2          2.1652   -7.0727   -0.1355 S.2       1 <0>        -0.4242
     14 N4          0.6618   -7.1541    1.9289 N.pl3     1 <0>        -0.7740
     15 H1          1.0048    1.8381    0.0023 H         1 <0>         0.0869
     16 H2         -0.5450    1.8219   -0.8730 H         1 <0>         0.0938
     17 H3         -0.5280    1.8123    0.9069 H         1 <0>         0.0960
     18 H4         -0.0017   -0.4887   -2.1352 H         1 <0>         0.1937
     19 H5          0.0290   -0.4838    2.1137 H         1 <0>         0.2165
     20 H6          1.6972   -5.0455   -1.1582 H         1 <0>         0.4345
     21 H7          0.4451   -4.4806    1.2237 H         1 <0>         0.1159
     22 H8         -0.7629   -5.4127    0.3071 H         1 <0>         0.1139
     23 H9         -0.0407   -6.8044    2.4990 H         1 <0>         0.4017
     24 H10         1.1156   -7.9774    2.1679 H         1 <0>         0.4223
@<TRIPOS>BOND
     1    1    2 1
     2    1   15 1
     3    1   16 1
     4    1   17 1
     5    2    6 1
     6    2    3 1
     7    3    4 2
     8    3   18 1
     9    4    5 1
    10    4    7 1
    11    5    6 2
    12    6   19 1
    13    7    8 2
    14    7    9 2
    15    7   10 1
    16   10   11 1
    17   10   20 1
    18   11   12 1
    19   11   21 1
    20   11   22 1
    21   12   13 2
    22   12   14 1
    23   14   23 1
    24   14   24 1
@<TRIPOS>MOLECULE
ZINC65743210
   31    31     0     0     0
SMALL
USER_CHARGES

@<TRIPOS>ATOM
      1 C1         -0.0187    1.5258    0.0104 C.3       1 <0>         0.0797
      2 C2          0.0021   -0.0041    0.0020 C.3       1 <0>        -0.0677
      3 S1         -1.6997   -0.6320    0.0149 S.3       1 <0>        -0.2328
      4 O1          1.3220    2.0204    0.0003 O.3       1 <0>        -0.3802
      5 C3          1.4155    3.4463    0.0071 C.3       1 <0>         0.2199
      6 H1          0.8592    3.8430    0.8563 H         1 <0>         0.1011
      7 C4          2.8848    3.8611    0.1205 C.3       1 <0>         0.0629
      8 H2          3.3165    3.4292    1.0233 H         1 <0>         0.0725
      9 C5          3.6473    3.3511   -1.1062 C.3       1 <0>         0.0838
     10 H3          4.6820    3.6907   -1.0595 H         1 <0>         0.0706
     11 C6          2.9837    3.9024   -2.3719 C.3       1 <0>         0.0907
     12 H4          3.4862    3.5000   -3.2515 H         1 <0>         0.0728
     13 C7          1.5106    3.4860   -2.3890 C.3       1 <0>         0.1098
     14 H5          1.4405    2.3989   -2.4255 H         1 <0>         0.0914
     15 O2          0.8674    3.9656   -1.2062 O.3       1 <0>        -0.3613
     16 C8          0.8259    4.0831   -3.6201 C.3       1 <0>         0.0856
     17 O3         -0.5169    3.6007   -3.6993 O.3       1 <0>        -0.5677
     18 O4          3.0783    5.3282   -2.3783 O.3       1 <0>        -0.5288
     19 O5          3.6137    1.9227   -1.1302 O.3       1 <0>        -0.5355
     20 O6          2.9754    5.2859    0.1822 O.3       1 <0>        -0.5277
     21 H6         -0.5459    1.8868   -0.8726 H         1 <0>         0.0744
     22 H7         -0.5289    1.8773    0.9072 H         1 <0>         0.0604
     23 H8          0.5123   -0.3556   -0.8948 H         1 <0>         0.0928
     24 H9          0.5293   -0.3651    0.8851 H         1 <0>         0.0900
     25 H10        -1.5534   -1.9689    0.0063 H         1 <0>         0.0963
     26 H11         0.8173    5.1701   -3.5398 H         1 <0>         0.0642
     27 H12         1.3709    3.7894   -4.5172 H         1 <0>         0.0586
     28 H13        -1.0123    3.9390   -4.4577 H         1 <0>         0.3814
     29 H14         3.9857    5.6623   -2.3638 H         1 <0>         0.3774
     30 H15         4.0127    1.5067   -0.3537 H         1 <0>         0.3837
     31 H16         2.5100    5.6773    0.9341 H         1 <0>         0.3817
@<TRIPOS>BOND
     1    1    2 1
     2    1    4 1
     3    1   21 1
     4    1   22 1
     5    2    3 1
     6    2   23 1
     7    2   24 1
     8    3   25 1
     9    4    5 1
    10    5    6 1
    11    5   15 1
    12    5    7 1
    13    7    8 1
    14    7    9 1
    15    7   20 1
    16    9   10 1
    17    9   11 1
    18    9   19 1
    19   11   12 1
    20   11   13 1
    21   11   18 1
    22   13   14 1
    23   13   15 1
    24   13   16 1
    25   16   17 1
    26   16   26 1
    27   16   27 1
    28   17   28 1
    29   18   29 1
    30   19   30 1
    31   20   31 1
@<TRIPOS>MOLECULE
ZINC05413946
   51    52     0     0     0
SMALL
USER_CHARGES
2-[[4-methylsulfonyl-3-[(2-oxo-3-piperidyl)carbamoyl]piperazin-1-yl]carbonylmethylsulfanyl]acetic acid
@<TRIPOS>ATOM
      1 C1         10.6947    3.6273   -3.0299 C.3       1 <0>        -0.6681
      2 S1         10.2925    3.4161   -1.2737 S.o2      1 <0>         2.6096
      3 O1         10.0895    4.6827   -0.6623 O.2       1 <0>        -0.9484
      4 O2         11.1611    2.4581   -0.6844 O.2       1 <0>        -0.9554
      5 N1          8.8007    2.6974   -1.2622 N.pl3     1 <0>        -0.9753
      6 C2          7.5779    3.5124   -1.2461 C.3       1 <0>         0.0969
      7 C3          6.7220    3.0885   -0.0517 C.3       1 <0>         0.0980
      8 N2          6.5972    1.6242   -0.0522 N.am      1 <0>        -0.6147
      9 C4          7.8200    0.8091   -0.0683 C.3       1 <0>         0.1172
     10 C5          8.6758    1.2331   -1.2683 C.3       1 <0>         0.1170
     11 H1          9.6637    0.7788   -1.1918 H         1 <0>         0.1371
     12 C6          8.0118    0.7874   -2.5457 C.2       1 <0>         0.5142
     13 O3          7.6885    1.6072   -3.3790 O.2       1 <0>        -0.5103
     14 N3          7.7772   -0.5220   -2.7619 N.am      1 <0>        -0.7104
     15 C7          7.1317   -0.9552   -4.0037 C.3       1 <0>         0.1400
     16 H2          7.4580   -0.3154   -4.8236 H         1 <0>         0.1150
     17 C8          7.5244   -2.4043   -4.3022 C.3       1 <0>        -0.1304
     18 C9          6.6339   -2.9237   -5.4373 C.3       1 <0>        -0.1321
     19 C10         5.1971   -3.0273   -4.9242 C.3       1 <0>         0.1081
     20 N4          4.7901   -1.7790   -4.2914 N.am      1 <0>        -0.7217
     21 C11         5.6412   -0.8502   -3.8540 C.2       1 <0>         0.4970
     22 O4          5.1871    0.1319   -3.3060 O.2       1 <0>        -0.5088
     23 C12         5.3830    1.0393   -0.0438 C.2       1 <0>         0.5516
     24 O5          5.2925   -0.1702   -0.0494 O.2       1 <0>        -0.5052
     25 C13         4.1378    1.8880   -0.0273 C.3       1 <0>        -0.1492
     26 S2          2.6750    0.8153   -0.0191 S.3       1 <0>        -0.1323
     27 C14         1.2804    1.9752    0.0004 C.3       1 <0>        -0.1443
     28 C15        -0.0143    1.2041    0.0087 C.2       1 <0>         0.4817
     29 O6          0.0021   -0.0041    0.0020 O.co2     1 <0>        -0.6141
     30 H3          9.9404    4.2565   -3.5022 H         1 <0>         0.1312
     31 H4         11.6726    4.0993   -3.1244 H         1 <0>         0.1262
     32 H5         10.7128    2.6530   -3.5182 H         1 <0>         0.1260
     33 H6          7.8416    4.5660   -1.1534 H         1 <0>         0.1070
     34 H7          7.0194    3.3524   -2.1684 H         1 <0>         0.0953
     35 H8          5.7333    3.5400   -0.1335 H         1 <0>         0.0994
     36 H9          7.2005    3.4146    0.8718 H         1 <0>         0.0787
     37 H10         8.3784    0.9692    0.8540 H         1 <0>         0.0881
     38 H11         7.5561   -0.2446   -0.1579 H         1 <0>         0.1068
     39 H12         8.0358   -1.1776   -2.0954 H         1 <0>         0.4041
     40 H13         8.5699   -2.4457   -4.6076 H         1 <0>         0.0828
     41 H14         7.3773   -3.0152   -3.4115 H         1 <0>         0.0796
     42 H15         6.6728   -2.2316   -6.2785 H         1 <0>         0.0745
     43 H16         6.9829   -3.9061   -5.7556 H         1 <0>         0.0900
     44 H17         4.5307   -3.2417   -5.7598 H         1 <0>         0.0773
     45 H18         5.1314   -3.8375   -4.1980 H         1 <0>         0.0664
     46 H19         3.8407   -1.6134   -4.1816 H         1 <0>         0.4052
     47 H20         4.1185    2.5220   -0.9138 H         1 <0>         0.1012
     48 H21         4.1355    2.5124    0.8661 H         1 <0>         0.0976
     49 H22         1.3211    2.6074   -0.8866 H         1 <0>         0.0802
     50 H23         1.3381    2.5978    0.8933 H         1 <0>         0.0797
     51 O7         -1.1858    1.8593    0.0178 O.co2     1 <0>        -0.7602
@<TRIPOS>BOND
     1    1    2 1
     2    1   30 1
     3    1   31 1
     4    1   32 1
     5    2    3 2
     6    2    4 2
     7    2    5 1
     8    5   10 1
     9    5    6 1
    10    6    7 1
    11    6   33 1
    12    6   34 1
    13    7    8 1
    14    7   35 1
    15    7   36 1
    16    8    9 1
    17    8   23 am
    18    9   10 1
    19    9   37 1
    20    9   38 1
    21   10   11 1
    22   10   12 1
    23   12   13 2
    24   12   14 am
    25   14   15 1
    26   14   39 1
    27   15   16 1
    28   15   21 1
    29   15   17 1
    30   17   18 1
    31   17   40 1
    32   17   41 1
    33   18   19 1
    34   18   42 1
    35   18   43 1
    36   19   20 1
    37   19   44 1
    38   19   45 1
    39   20   21 am
    40   20   46 1
    41   21   22 2
    42   23   24 2
    43   23   25 1
    44   25   26 1
    45   25   47 1
    46   25   48 1
    47   26   27 1
    48   27   28 1
    49   27   49 1
    50   27   50 1
    51   28   29 2
    52   28   51 1
@<TRIPOS>MOLECULE
ZINC16042905
   57    59     0     0     0
SMALL
USER_CHARGES
2-[[2-[[(2R)-2-[[2-[(6-oxo-7,8,9,10-tetrahydrobenzo[c]isochromen-3-yl)oxy]acetyl]amino]propanoyl]amino]acetyl]amino]acetic acid
@<TRIPOS>ATOM
      1 C1          1.6644    6.2897   -1.4171 C.3       1 <0>        -0.1627
      2 C2          1.8762    5.7955    0.0153 C.3       1 <0>         0.1297
      3 H1          0.9964    6.0302    0.6144 H         1 <0>         0.1204
      4 C3          3.0835    6.4754    0.6079 C.2       1 <0>         0.5142
      5 O1          4.0277    5.8142    0.9849 O.2       1 <0>        -0.5396
      6 N1          3.1139    7.8182    0.7189 N.am      1 <0>        -0.7056
      7 C4          4.2876    8.4792    1.2950 C.3       1 <0>         0.0997
      8 C5          4.0699    9.9704    1.3051 C.2       1 <0>         0.4992
      9 O2          3.0362   10.4352    0.8735 O.2       1 <0>        -0.5549
     10 N2          5.0240   10.7874    1.7937 N.am      1 <0>        -0.6952
     11 C6          4.8123   12.2370    1.8035 C.3       1 <0>         0.0753
     12 C7          6.0196   12.9169    2.3961 C.2       1 <0>         0.4586
     13 O3          6.9603   12.2582    2.7717 O.co2     1 <0>        -0.6346
     14 N3          2.0878    4.3459    0.0055 N.am      1 <0>        -0.7077
     15 C8          1.0303    3.5104    0.0111 C.2       1 <0>         0.5201
     16 O4         -0.0966    3.9587    0.0242 O.2       1 <0>        -0.5112
     17 C9          1.2479    2.0193    0.0010 C.3       1 <0>         0.0398
     18 O5         -0.0163    1.3532    0.0095 O.3       1 <0>        -0.2781
     19 C10         0.0021   -0.0041    0.0020 C.ar      1 <0>         0.1873
     20 C11         1.2216   -0.6786   -0.0132 C.ar      1 <0>        -0.2257
     21 C12         1.2574   -2.0429   -0.0205 C.ar      1 <0>        -0.0158
     22 C13         0.0605   -2.7688   -0.0129 C.ar      1 <0>        -0.1881
     23 C14        -1.1724   -2.0938    0.0018 C.ar      1 <0>         0.1851
     24 C15        -1.1915   -0.7073    0.0153 C.ar      1 <0>        -0.1681
     25 O6         -2.3211   -2.8028    0.0073 O.3       1 <0>        -0.2668
     26 C16        -2.3131   -4.1423    0.0017 C.2       1 <0>         0.5133
     27 O7         -3.3755   -4.7379    0.0043 O.2       1 <0>        -0.4609
     28 C17        -1.1087   -4.8889   -0.0078 C.2       1 <0>        -0.2175
     29 C18         0.0743   -4.2375   -0.0212 C.2       1 <0>         0.0371
     30 C19         1.4017   -4.9429   -0.0520 C.3       1 <0>        -0.0926
     31 C20         1.2463   -6.4019    0.3741 C.3       1 <0>        -0.1218
     32 C21         0.1074   -7.0230   -0.4438 C.3       1 <0>        -0.1216
     33 C22        -1.2083   -6.3913    0.0061 C.3       1 <0>        -0.0599
     34 H2          0.7912    5.7979   -1.8458 H         1 <0>         0.0763
     35 H3          1.5070    7.3682   -1.4099 H         1 <0>         0.0788
     36 H4          2.5442    6.0550   -2.0163 H         1 <0>         0.0665
     37 H5          2.3587    8.3471    0.4173 H         1 <0>         0.4154
     38 H6          4.4385    8.1271    2.3155 H         1 <0>         0.1017
     39 H7          5.1674    8.2445    0.6959 H         1 <0>         0.1021
     40 H8          5.8507   10.4156    2.1388 H         1 <0>         0.4111
     41 H9          4.6615   12.5890    0.7830 H         1 <0>         0.0761
     42 H10         3.9325   12.4717    2.4026 H         1 <0>         0.0762
     43 H11         2.9891    3.9874   -0.0051 H         1 <0>         0.4124
     44 H12         1.8173    1.7292    0.8840 H         1 <0>         0.1027
     45 H13         1.8003    1.7388   -0.8958 H         1 <0>         0.1018
     46 H14         2.1446   -0.1178   -0.0197 H         1 <0>         0.1431
     47 H15         2.2053   -2.5603   -0.0324 H         1 <0>         0.1445
     48 H16        -2.1327   -0.1780    0.0321 H         1 <0>         0.1553
     49 H17         1.8052   -4.9052   -1.0638 H         1 <0>         0.0945
     50 H18         2.0908   -4.4417    0.6278 H         1 <0>         0.0897
     51 H19         2.1735   -6.9417    0.1819 H         1 <0>         0.0761
     52 H20         1.0059   -6.4510    1.4362 H         1 <0>         0.0705
     53 H21         0.2661   -6.8247   -1.5038 H         1 <0>         0.0682
     54 H22         0.0764   -8.0990   -0.2722 H         1 <0>         0.0754
     55 H23        -1.4403   -6.7265    1.0170 H         1 <0>         0.0804
     56 H24        -2.0061   -6.7045   -0.6673 H         1 <0>         0.0838
     57 O8          6.0500   14.2543    2.5067 O.co2     1 <0>        -0.7541
@<TRIPOS>BOND
     1    1    2 1
     2    1   34 1
     3    1   35 1
     4    1   36 1
     5    2    3 1
     6    2    4 1
     7    2   14 1
     8    4    5 2
     9    4    6 am
    10    6    7 1
    11    6   37 1
    12    7    8 1
    13    7   38 1
    14    7   39 1
    15    8    9 2
    16    8   10 am
    17   10   11 1
    18   10   40 1
    19   11   12 1
    20   11   41 1
    21   11   42 1
    22   12   13 2
    23   12   57 1
    24   14   15 am
    25   14   43 1
    26   15   16 2
    27   15   17 1
    28   17   18 1
    29   17   44 1
    30   17   45 1
    31   18   19 1
    32   19   24 ar
    33   19   20 ar
    34   20   21 ar
    35   20   46 1
    36   21   22 ar
    37   21   47 1
    38   22   29 1
    39   22   23 ar
    40   23   24 ar
    41   23   25 1
    42   24   48 1
    43   25   26 1
    44   26   27 2
    45   26   28 1
    46   28   33 1
    47   28   29 2
    48   29   30 1
    49   30   31 1
    50   30   49 1
    51   30   50 1
    52   31   32 1
    53   31   51 1
    54   31   52 1
    55   32   33 1
    56   32   53 1
    57   32   54 1
    58   33   55 1
    59   33   56 1
@<TRIPOS>MOLECULE
ZINC34255608
   58    61     0     0     0
SMALL
USER_CHARGES

@<TRIPOS>ATOM
      1 C1         -1.1888    1.4440   -1.6298 C.3       1 <0>        -0.1431
      2 C2         -1.1250   -0.0605   -1.5700 C.2       1 <0>         0.4567
      3 O1         -2.0871   -0.7191   -1.8870 O.2       1 <0>        -0.4895
      4 O2          0.0010   -0.6691   -1.1644 O.3       1 <0>        -0.2981
      5 C3         -0.0184   -2.0212   -1.0268 C.ar      1 <0>         0.1023
      6 C4          0.0231   -2.8345   -2.1499 C.ar      1 <0>        -0.1057
      7 C5          0.0037   -4.2085   -2.0074 C.ar      1 <0>        -0.1145
      8 C6         -0.0570   -4.7731   -0.7468 C.ar      1 <0>        -0.1245
      9 C7         -0.0989   -3.9647    0.3741 C.ar      1 <0>        -0.0493
     10 C8         -0.0740   -2.5903    0.2372 C.ar      1 <0>        -0.1076
     11 C9         -0.0780   -6.2722   -0.5942 C.3       1 <0>         0.1094
     12 H1         -0.5650   -6.5486    0.3410 H         1 <0>         0.1587
     13 C10         1.3373   -6.8242   -0.6328 C.3       1 <0>        -0.1515
     14 H2          1.4213   -7.7761   -0.1085 H         1 <0>         0.1644
     15 C11         1.4908   -6.9630   -2.1958 C.3       1 <0>        -0.1468
     16 H3          1.3176   -5.9534   -2.5683 H         1 <0>         0.0990
     17 C12         2.9182   -7.1054   -2.3381 C.2       1 <0>         0.5803
     18 O3          3.5150   -7.7655   -3.1614 O.2       1 <0>        -0.4209
     19 N1          3.4556   -6.3308   -1.3399 N.am      1 <0>        -0.5951
     20 C13         2.5257   -5.9448   -0.4002 C.2       1 <0>         0.5665
     21 O4          2.6378   -5.0748    0.4366 O.2       1 <0>        -0.4491
     22 C14         4.8717   -5.9618   -1.2721 C.3       1 <0>         0.1378
     23 C15         5.4753   -6.4930    0.0296 C.3       1 <0>        -0.1334
     24 C16         6.9543   -6.1076    0.1005 C.3       1 <0>        -0.1139
     25 C17         7.0868   -4.5839    0.0613 C.3       1 <0>        -0.1215
     26 C18         6.4832   -4.0528   -1.2404 C.3       1 <0>        -0.1142
     27 C19         5.0042   -4.4381   -1.3113 C.3       1 <0>        -0.1328
     28 C20         0.2442   -7.6550   -2.5646 C.3       1 <0>         0.0607
     29 N2         -0.7865   -6.8993   -1.7506 N.4       1 <0>        -0.4928
     30 C21        -0.0389   -7.5053   -4.0607 C.3       1 <0>        -0.1892
     31 C22        -1.3782   -8.1169   -4.3822 C.2       1 <0>         0.4880
     32 O5         -2.0445   -8.6254   -3.4968 O.co2     1 <0>        -0.6691
     33 O6         -1.7954   -8.1032   -5.5278 O.co2     1 <0>        -0.6872
     34 C23         0.3019   -9.1087   -2.1716 C.2       1 <0>         0.5266
     35 O7         -0.5168   -9.5619   -1.3900 O.co2     1 <0>        -0.6532
     36 O8          1.1674   -9.8317   -2.6352 O.co2     1 <0>        -0.6434
     37 H4         -1.5407    1.8310   -0.6735 H         1 <0>         0.1090
     38 H5         -0.1958    1.8417   -1.8395 H         1 <0>         0.0974
     39 H6         -1.8760    1.7474   -2.4196 H         1 <0>         0.1076
     40 H7          0.0702   -2.3939   -3.1348 H         1 <0>         0.1372
     41 H8          0.0357   -4.8421   -2.8815 H         1 <0>         0.1331
     42 H9         -0.1467   -4.4081    1.3577 H         1 <0>         0.1455
     43 H10        -0.1023   -1.9592    1.1132 H         1 <0>         0.1408
     44 H11         5.4010   -6.3945   -2.1211 H         1 <0>         0.1043
     45 H12         4.9461   -6.0603    0.8786 H         1 <0>         0.0736
     46 H13         5.3810   -7.5785    0.0575 H         1 <0>         0.0714
     47 H14         7.3843   -6.4860    1.0278 H         1 <0>         0.0685
     48 H15         7.4836   -6.5403   -0.7485 H         1 <0>         0.0663
     49 H16         6.5575   -4.1512    0.9103 H         1 <0>         0.0641
     50 H17         8.1404   -4.3093    0.1118 H         1 <0>         0.0641
     51 H18         6.5775   -2.9672   -1.2683 H         1 <0>         0.0672
     52 H19         7.0124   -4.4854   -2.0894 H         1 <0>         0.0648
     53 H20         4.5742   -4.0597   -2.2386 H         1 <0>         0.0645
     54 H21         4.4749   -4.0054   -0.4623 H         1 <0>         0.0828
     55 H22        -1.4880   -7.5417   -1.4140 H         1 <0>         0.4500
     56 H23        -0.0497   -6.4477   -4.3244 H         1 <0>         0.0616
     57 H24         0.7389   -8.0138   -4.6304 H         1 <0>         0.1106
     58 H25        -1.2199   -6.1837   -2.3147 H         1 <0>         0.4115
@<TRIPOS>BOND
     1    1    2 1
     2    1   37 1
     3    1   38 1
     4    1   39 1
     5    2    3 2
     6    2    4 1
     7    4    5 1
     8    5   10 ar
     9    5    6 ar
    10    6    7 ar
    11    6   40 1
    12    7    8 ar
    13    7   41 1
    14    8    9 ar
    15    8   11 1
    16    9   10 ar
    17    9   42 1
    18   10   43 1
    19   11   12 1
    20   11   29 1
    21   11   13 1
    22   13   14 1
    23   13   20 1
    24   13   15 1
    25   15   16 1
    26   15   17 1
    27   15   28 1
    28   17   18 2
    29   17   19 am
    30   19   20 am
    31   19   22 1
    32   20   21 2
    33   22   27 1
    34   22   23 1
    35   22   44 1
    36   23   24 1
    37   23   45 1
    38   23   46 1
    39   24   25 1
    40   24   47 1
    41   24   48 1
    42   25   26 1
    43   25   49 1
    44   25   50 1
    45   26   27 1
    46   26   51 1
    47   26   52 1
    48   27   53 1
    49   27   54 1
    50   28   29 1
    51   28   30 1
    52   28   34 1
    53   29   55 1
    54   29   58 1
    55   30   31 1
    56   30   56 1
    57   30   57 1
    58   31   32 2
    59   31   33 1
    60   34   35 2
    61   34   36 1
@<TRIPOS>MOLECULE
ZINC39559810
   46    47     0     0     0
SMALL
USER_CHARGES

@<TRIPOS>ATOM
      1 C1         -0.0184    1.5028    0.0103 C.3       1 <0>        -0.1852
      2 C2          0.0021   -0.0041    0.0020 C.2       1 <0>         0.4028
      3 O1          1.0610   -0.5964   -0.0113 O.2       1 <0>        -0.4556
      4 C3         -1.2559   -0.7534    0.0100 C.ar      1 <0>        -0.2236
      5 C4         -2.4868   -0.0739    0.0196 C.ar      1 <0>         0.1895
      6 C5         -3.6666   -0.7955    0.0270 C.ar      1 <0>        -0.1741
      7 C6         -3.6457   -2.1817    0.0255 C.ar      1 <0>        -0.0261
      8 C7         -2.4410   -2.8612    0.0163 C.ar      1 <0>        -0.1819
      9 C8         -1.2447   -2.1576    0.0024 C.ar      1 <0>         0.2017
     10 O2         -0.0651   -2.8262   -0.0130 O.3       1 <0>        -0.3203
     11 C9          0.5120   -3.1529    1.2529 C.3       1 <0>         0.0332
     12 C10        -2.6952   -4.3539    0.0166 C.3       1 <0>         0.1842
     13 C11        -4.1623   -4.5136    0.4681 C.3       1 <0>         0.1873
     14 H1         -4.6370   -5.3494   -0.0459 H         1 <0>         0.1299
     15 C12        -4.7908   -3.1733    0.0323 C.3       1 <0>         0.1341
     16 H2         -5.5546   -2.8641    0.7458 H         1 <0>         0.1197
     17 O3         -5.3522   -3.2913   -1.2765 O.3       1 <0>        -0.7561
     18 S1         -6.5824   -2.4242   -1.5029 S.o2      1 <0>         2.7614
     19 O4         -7.2288   -2.9151   -2.7101 O.2       1 <0>        -1.0623
     20 O5         -7.4302   -2.5796   -0.3311 O.2       1 <0>        -1.0857
     21 O6         -6.1125   -1.0561   -1.6560 O.3       1 <0>        -1.0859
     22 N1         -4.2444   -4.6840    1.9208 N.am      1 <0>        -0.7203
     23 C13        -5.2994   -5.3216    2.4659 C.2       1 <0>         0.7034
     24 O7         -6.1828   -5.7553    1.7520 O.2       1 <0>        -0.5772
     25 N2         -5.3749   -5.4784    3.8024 N.am      1 <0>        -0.8669
     26 C14        -2.5077   -4.9247   -1.3905 C.3       1 <0>        -0.1726
     27 O8         -1.8190   -5.0059    0.9381 O.3       1 <0>        -0.5513
     28 O9         -2.5170    1.2819    0.0220 O.3       1 <0>        -0.3018
     29 C15        -3.8043    1.9021    0.0319 C.3       1 <0>         0.0117
     30 H3          1.0042    1.8801    0.0026 H         1 <0>         0.0751
     31 H4         -0.5455    1.8639   -0.8728 H         1 <0>         0.0967
     32 H5         -0.5286    1.8543    0.9071 H         1 <0>         0.0945
     33 H6         -4.6126   -0.2745    0.0343 H         1 <0>         0.1597
     34 H7          1.4506   -3.6850    1.0979 H         1 <0>         0.0972
     35 H8          0.7015   -2.2373    1.8130 H         1 <0>         0.0496
     36 H9         -0.1761   -3.7858    1.8134 H         1 <0>         0.0559
     37 H10        -3.5396   -4.3380    2.4904 H         1 <0>         0.4025
     38 H11        -4.6701   -5.1323    4.3720 H         1 <0>         0.3945
     39 H12        -6.1342   -5.9372    4.1948 H         1 <0>         0.4144
     40 H13        -1.4802   -4.7604   -1.7152 H         1 <0>         0.0686
     41 H14        -2.7188   -5.9940   -1.3800 H         1 <0>         0.0728
     42 H15        -3.1903   -4.4263   -2.0787 H         1 <0>         0.0877
     43 H16        -0.8806   -4.9026    0.7289 H         1 <0>         0.3779
     44 H17        -4.3608    1.5984   -0.8548 H         1 <0>         0.0765
     45 H18        -4.3485    1.5954    0.9251 H         1 <0>         0.0610
     46 H19        -3.6856    2.9856    0.0329 H         1 <0>         0.1035
@<TRIPOS>BOND
     1    1    2 1
     2    1   30 1
     3    1   31 1
     4    1   32 1
     5    2    3 2
     6    2    4 1
     7    4    9 ar
     8    4    5 ar
     9    5    6 ar
    10    5   28 1
    11    6    7 ar
    12    6   33 1
    13    7   15 1
    14    7    8 ar
    15    8    9 ar
    16    8   12 1
    17    9   10 1
    18   10   11 1
    19   11   34 1
    20   11   35 1
    21   11   36 1
    22   12   13 1
    23   12   26 1
    24   12   27 1
    25   13   14 1
    26   13   15 1
    27   13   22 1
    28   15   16 1
    29   15   17 1
    30   17   18 1
    31   18   19 2
    32   18   20 2
    33   18   21 1
    34   22   23 am
    35   22   37 1
    36   23   24 2
    37   23   25 am
    38   25   38 1
    39   25   39 1
    40   26   40 1
    41   26   41 1
    42   26   42 1
    43   27   43 1
    44   28   29 1
    45   29   44 1
    46   29   45 1
    47   29   46 1
@<TRIPOS>MOLECULE
ZINC31817781
   53    55     0     0     0
SMALL
USER_CHARGES

@<TRIPOS>ATOM
      1 C1          0.0423   -0.8548    1.3098 C.3       1 <0>        -0.1792
      2 C2          0.0147   -0.0867    0.0135 C.2       1 <0>         0.5223
      3 O1         -0.0940    1.1212    0.0266 O.2       1 <0>        -0.5299
      4 N1          0.1107   -0.7420   -1.1603 N.am      1 <0>        -0.6323
      5 C3          0.2101   -0.0073   -2.4308 C.3       1 <0>         0.0927
      6 C4         -0.8336   -0.5708   -3.4008 C.3       1 <0>        -0.0293
      7 N2         -0.6519   -2.0227   -3.5244 N.4       1 <0>        -0.3571
      8 C5         -0.9198   -2.6718   -2.2349 C.3       1 <0>        -0.0176
      9 C6          0.1253   -2.2123   -1.2067 C.3       1 <0>         0.0895
     10 C7         -1.5796   -2.5460   -4.5361 C.3       1 <0>         0.0299
     11 H1         -2.6049   -2.3319   -4.2344 H         1 <0>         0.1341
     12 C8         -1.2988   -1.8889   -5.8629 C.2       1 <0>        -0.1752
     13 C9         -0.1318   -1.3566   -6.2590 C.2       1 <0>         0.0479
     14 N3         -0.2550   -0.8512   -7.5243 N.pl3     1 <0>        -0.5856
     15 H2          0.4551   -0.4173   -8.0227 H         1 <0>         0.4183
     16 C10        -1.5388   -1.0514   -7.9858 C.ar      1 <0>         0.0837
     17 C11        -2.2459   -1.7157   -6.9671 C.ar      1 <0>        -0.0663
     18 C12        -3.5858   -2.0585   -7.1567 C.ar      1 <0>        -0.0642
     19 C13        -4.2085   -1.7444   -8.3502 C.ar      1 <0>         0.1285
     20 C14        -3.5036   -1.0895   -9.3584 C.ar      1 <0>        -0.1103
     21 C15        -2.1843   -0.7396   -9.1777 C.ar      1 <0>        -0.1166
     22 N4         -5.5532   -2.0862   -8.5473 N.am      1 <0>        -0.6795
     23 C16        -6.4180   -2.0420   -7.5145 C.2       1 <0>         0.5118
     24 O2         -6.0172   -1.7878   -6.3983 O.2       1 <0>        -0.5249
     25 C17        -7.8830   -2.3083   -7.7466 C.3       1 <0>        -0.1106
     26 C18        -8.6380   -2.1966   -6.4205 C.3       1 <0>        -0.1669
     27 C19       -10.1030   -2.4630   -6.6526 C.2       1 <0>         0.4913
     28 O3        -10.5059   -2.7185   -7.7746 O.co2     1 <0>        -0.7016
     29 O4        -10.8853   -2.4230   -5.7183 O.co2     1 <0>        -0.7025
     30 C20        -1.3945   -4.0361   -4.6644 C.2       1 <0>         0.5019
     31 O5         -2.3361   -4.7422   -4.9826 O.co2     1 <0>        -0.6230
     32 O6         -0.3031   -4.5355   -4.4500 O.co2     1 <0>        -0.6756
     33 H3         -0.9785   -1.0588    1.6331 H         1 <0>         0.1017
     34 H4          0.5719   -1.7961    1.1631 H         1 <0>         0.0853
     35 H5          0.5535   -0.2651    2.0708 H         1 <0>         0.0996
     36 H6          0.0157    1.0512   -2.2580 H         1 <0>         0.1289
     37 H7          1.2076   -0.1356   -2.8511 H         1 <0>         0.0891
     38 H8         -1.8335   -0.3607   -3.0210 H         1 <0>         0.1294
     39 H9         -0.7106   -0.1046   -4.3783 H         1 <0>         0.1397
     40 H10        -1.9171   -2.3981   -1.8904 H         1 <0>         0.1260
     41 H11        -0.8603   -3.7537   -2.3533 H         1 <0>         0.1551
     42 H12         1.1144   -2.5595   -1.5055 H         1 <0>         0.0976
     43 H13        -0.1252   -2.6123   -0.2242 H         1 <0>         0.1279
     44 H14         0.7707   -1.3311   -5.6665 H         1 <0>         0.1623
     45 H15        -4.1324   -2.5663   -6.3759 H         1 <0>         0.1484
     46 H16        -3.9986   -0.8487  -10.2876 H         1 <0>         0.1321
     47 H17        -1.6470   -0.2337   -9.9663 H         1 <0>         0.1250
     48 H18        -5.8615   -2.3545   -9.4269 H         1 <0>         0.4115
     49 H19        -8.2779   -1.5774   -8.4522 H         1 <0>         0.0945
     50 H20        -8.0099   -3.3115   -8.1535 H         1 <0>         0.0957
     51 H21        -8.2431   -2.9276   -5.7149 H         1 <0>         0.0653
     52 H22        -8.5111   -1.1934   -6.0136 H         1 <0>         0.0629
     53 H23         0.2964   -2.2188   -3.8077 H         1 <0>         0.4182
@<TRIPOS>BOND
     1    1    2 1
     2    1   33 1
     3    1   34 1
     4    1   35 1
     5    2    3 2
     6    2    4 am
     7    4    9 1
     8    4    5 1
     9    5    6 1
    10    5   36 1
    11    5   37 1
    12    6    7 1
    13    6   38 1
    14    6   39 1
    15    7    8 1
    16    7   10 1
    17    7   53 1
    18    8    9 1
    19    8   40 1
    20    8   41 1
    21    9   42 1
    22    9   43 1
    23   10   11 1
    24   10   12 1
    25   10   30 1
    26   12   17 1
    27   12   13 2
    28   13   14 1
    29   13   44 1
    30   14   15 1
    31   14   16 1
    32   16   21 ar
    33   16   17 ar
    34   17   18 ar
    35   18   19 ar
    36   18   45 1
    37   19   20 ar
    38   19   22 1
    39   20   21 ar
    40   20   46 1
    41   21   47 1
    42   22   23 am
    43   22   48 1
    44   23   24 2
    45   23   25 1
    46   25   26 1
    47   25   49 1
    48   25   50 1
    49   26   27 1
    50   26   51 1
    51   26   52 1
    52   27   28 2
    53   27   29 1
    54   30   31 2
    55   30   32 1
@<TRIPOS>MOLECULE
ZINC09938126
   48    51     0     0     0
SMALL
USER_CHARGES
3-(3-carboxyphenyl)-8-(2-hydroxy-3-methoxy-phenyl)-2,4-dioxo-3,7-diazabicyclo[3.3.0]octane-6-carboxylic acid
@<TRIPOS>ATOM
      1 C1          9.7212   -0.1635   -0.6672 C.3       1 <0>         0.0233
      2 O1          8.4025    0.3305   -0.9099 O.3       1 <0>        -0.2973
      3 C2          8.2292    1.6785   -0.8599 C.ar      1 <0>         0.1157
      4 C3          9.3049    2.5070   -0.5833 C.ar      1 <0>        -0.1823
      5 C4          9.1270    3.8770   -0.5324 C.ar      1 <0>        -0.0756
      6 C5          7.8771    4.4236   -0.7565 C.ar      1 <0>        -0.1520
      7 C6          6.7997    3.6027   -1.0329 C.ar      1 <0>        -0.1116
      8 C7          6.9701    2.2284   -1.0802 C.ar      1 <0>         0.1253
      9 O2          5.9101    1.4190   -1.3465 O.3       1 <0>        -0.4588
     10 C8          5.4387    4.2021   -1.2767 C.3       1 <0>         0.1039
     11 H1          4.8942    3.6202   -2.0203 H         1 <0>         0.1702
     12 C9          4.6390    4.2735    0.0409 C.3       1 <0>        -0.1303
     13 H2          5.2771    4.2162    0.9227 H         1 <0>         0.1557
     14 C10         3.8479    5.6064   -0.0452 C.3       1 <0>        -0.1292
     15 H3          4.0464    6.2713    0.7953 H         1 <0>         0.1560
     16 C11         4.2390    6.2300   -1.4011 C.3       1 <0>        -0.0093
     17 H4          4.3225    7.3130   -1.3111 H         1 <0>         0.1652
     18 C12         3.2278    5.8662   -2.4576 C.2       1 <0>         0.4405
     19 O3          3.4616    4.9713   -3.2350 O.co2     1 <0>        -0.6029
     20 C13         2.4062    5.1539   -0.1030 C.2       1 <0>         0.5251
     21 O4          1.4440    5.8876   -0.1770 O.2       1 <0>        -0.4017
     22 N1          2.3582    3.8174   -0.0596 N.am      1 <0>        -0.5105
     23 C14         3.5530    3.2213    0.0265 C.2       1 <0>         0.5279
     24 O5          3.7364    2.0242    0.0824 O.2       1 <0>        -0.4240
     25 C15         1.1537    3.1003   -0.0956 C.ar      1 <0>         0.0853
     26 C16         0.2497    3.2077    0.9543 C.ar      1 <0>        -0.1037
     27 C17        -0.9392    2.5031    0.9241 C.ar      1 <0>        -0.1313
     28 C18        -1.2339    1.6835   -0.1464 C.ar      1 <0>        -0.0641
     29 C19        -0.3346    1.5727   -1.2087 C.ar      1 <0>        -0.1040
     30 C20         0.8655    2.2845   -1.1775 C.ar      1 <0>        -0.0510
     31 C21        -0.6495    0.7005   -2.3588 C.2       1 <0>         0.4923
     32 O6          0.1366    0.6019   -3.2795 O.co2     1 <0>        -0.6243
     33 H5          9.7202   -1.2513   -0.7369 H         1 <0>         0.1061
     34 H6         10.4055    0.2475   -1.4095 H         1 <0>         0.0576
     35 H7         10.0438    0.1364    0.3298 H         1 <0>         0.0580
     36 H8         10.2824    2.0825   -0.4079 H         1 <0>         0.1393
     37 H9          9.9662    4.5216   -0.3168 H         1 <0>         0.1369
     38 H10         7.7420    5.4943   -0.7151 H         1 <0>         0.1239
     39 H11         5.7810    1.2367   -2.2873 H         1 <0>         0.3968
     40 H12         0.4769    3.8438    1.7970 H         1 <0>         0.1161
     41 H13        -1.6377    2.5908    1.7431 H         1 <0>         0.1259
     42 H14        -2.1616    1.1308   -0.1641 H         1 <0>         0.1372
     43 H15         1.5670    2.1998   -1.9943 H         1 <0>         0.1309
     44 N2          5.5396    5.5996   -1.7032 N.4       1 <0>        -0.4911
     45 H16         5.7314    5.6493   -2.7106 H         1 <0>         0.4413
     46 H17         6.2907    6.0736   -1.1880 H         1 <0>         0.4141
     47 O7          2.0673    6.5363   -2.5349 O.co2     1 <0>        -0.6620
     48 O8         -1.8086    0.0146   -2.3864 O.co2     1 <0>        -0.7531
@<TRIPOS>BOND
     1    1    2 1
     2    1   33 1
     3    1   34 1
     4    1   35 1
     5    2    3 1
     6    3    8 ar
     7    3    4 ar
     8    4    5 ar
     9    4   36 1
    10    5    6 ar
    11    5   37 1
    12    6    7 ar
    13    6   38 1
    14    7    8 ar
    15    7   10 1
    16    8    9 1
    17    9   39 1
    18   10   11 1
    19   10   12 1
    20   10   44 1
    21   12   13 1
    22   12   23 1
    23   12   14 1
    24   14   15 1
    25   14   16 1
    26   14   20 1
    27   16   17 1
    28   16   18 1
    29   16   44 1
    30   18   19 2
    31   18   47 1
    32   20   21 2
    33   20   22 am
    34   22   23 am
    35   22   25 1
    36   23   24 2
    37   25   30 ar
    38   25   26 ar
    39   26   27 ar
    40   26   40 1
    41   27   28 ar
    42   27   41 1
    43   28   29 ar
    44   28   42 1
    45   29   30 ar
    46   29   31 1
    47   30   43 1
    48   31   32 2
    49   31   48 1
    50   44   45 1
    51   44   46 1
@<TRIPOS>MOLECULE
ZINC34377984
   55    57     0     0     0
SMALL
USER_CHARGES

@<TRIPOS>ATOM
      1 C1         -0.0187    1.5258    0.0104 C.3       1 <0>        -0.1521
      2 C2          0.0021   -0.0041    0.0020 C.3       1 <0>        -0.1202
      3 C3          0.7182   -0.4975   -1.2568 C.3       1 <0>        -0.1387
      4 C4          0.7390   -2.0273   -1.2652 C.3       1 <0>         0.1049
      5 N1          1.4247   -2.4998   -2.4705 N.am      1 <0>        -0.5971
      6 C5          0.7863   -2.7498   -3.6600 C.2       1 <0>         0.5938
      7 O1         -0.3388   -2.4289   -3.9776 O.2       1 <0>        -0.4575
      8 C6          1.7489   -3.4788   -4.4481 C.3       1 <0>        -0.2059
      9 H1          1.7640   -4.4538   -3.9611 H         1 <0>         0.1212
     10 C7          2.0485   -3.8166   -5.8504 C.3       1 <0>         0.1326
     11 H2          2.0675   -2.9207   -6.4708 H         1 <0>         0.1530
     12 N2          3.4201   -4.4235   -5.7420 N.4       1 <0>        -0.4866
     13 C8          4.0485   -3.9111   -4.4879 C.3       1 <0>         0.0312
     14 C9          3.1047   -2.8025   -3.9978 C.3       1 <0>        -0.1097
     15 H3          3.2929   -1.8278   -4.4479 H         1 <0>         0.1567
     16 C10         2.7692   -2.7335   -2.5338 C.2       1 <0>         0.5496
     17 O2          3.5344   -2.8613   -1.6023 O.2       1 <0>        -0.4155
     18 C11         4.1661   -5.0352   -3.4567 C.3       1 <0>        -0.1955
     19 C12         5.0480   -6.1282   -4.0034 C.2       1 <0>         0.4875
     20 O3          5.5370   -6.0182   -5.1148 O.co2     1 <0>        -0.6688
     21 O4          5.2723   -7.1224   -3.3343 O.co2     1 <0>        -0.6840
     22 C13         5.4069   -3.3298   -4.7847 C.2       1 <0>         0.5283
     23 O5          5.8452   -3.3545   -5.9222 O.co2     1 <0>        -0.6542
     24 O6          6.0675   -2.8349   -3.8875 O.co2     1 <0>        -0.6421
     25 C14         1.0575   -4.8177   -6.3859 C.ar      1 <0>        -0.1198
     26 C15         1.1985   -6.1590   -6.0816 C.ar      1 <0>        -0.1123
     27 C16         0.2916   -7.0787   -6.5717 C.ar      1 <0>        -0.0869
     28 C17        -0.7616   -6.6553   -7.3693 C.ar      1 <0>         0.1189
     29 C18        -0.9011   -5.3088   -7.6728 C.ar      1 <0>        -0.0990
     30 C19         0.0055   -4.3924   -7.1760 C.ar      1 <0>        -0.0725
     31 C20        -2.0439   -4.8454   -8.5390 C.3       1 <0>        -0.1132
     32 O7         -1.6548   -7.5581   -7.8530 O.3       1 <0>        -0.4898
     33 C21         0.4464   -8.5407   -6.2405 C.3       1 <0>        -0.1209
     34 H4          1.0039    1.9031    0.0027 H         1 <0>         0.0557
     35 H5         -0.5459    1.8868   -0.8726 H         1 <0>         0.0540
     36 H6         -0.5289    1.8773    0.9072 H         1 <0>         0.0552
     37 H7          0.5293   -0.3651    0.8851 H         1 <0>         0.0662
     38 H8         -1.0205   -0.3814    0.0098 H         1 <0>         0.0643
     39 H9          0.1910   -0.1364   -2.1398 H         1 <0>         0.0709
     40 H10         1.7408   -0.1202   -1.2645 H         1 <0>         0.0706
     41 H11         1.2661   -2.3884   -0.3821 H         1 <0>         0.0974
     42 H12        -0.2836   -2.4046   -1.2575 H         1 <0>         0.0909
     43 H13         3.3465   -5.4290   -5.7011 H         1 <0>         0.4220
     44 H14         4.6022   -4.6418   -2.5384 H         1 <0>         0.1181
     45 H15         3.1761   -5.4390   -3.2448 H         1 <0>         0.0547
     46 H16         2.0185   -6.4881   -5.4606 H         1 <0>         0.1295
     47 H17        -0.1052   -3.3436   -7.4083 H         1 <0>         0.1381
     48 H18        -2.9018   -4.6055   -7.9110 H         1 <0>         0.0722
     49 H19        -1.7415   -3.9583   -9.0955 H         1 <0>         0.0710
     50 H20        -2.3150   -5.6374   -9.2372 H         1 <0>         0.0754
     51 H21        -2.4140   -7.7095   -7.2736 H         1 <0>         0.3914
     52 H22        -0.0984   -8.7651   -5.3235 H         1 <0>         0.0740
     53 H23         0.0471   -9.1424   -7.0569 H         1 <0>         0.0777
     54 H24         1.5025   -8.7718   -6.1015 H         1 <0>         0.0773
     55 H25         3.9772   -4.1531   -6.5385 H         1 <0>         0.4379
@<TRIPOS>BOND
     1    1    2 1
     2    1   34 1
     3    1   35 1
     4    1   36 1
     5    2    3 1
     6    2   37 1
     7    2   38 1
     8    3    4 1
     9    3   39 1
    10    3   40 1
    11    4    5 1
    12    4   41 1
    13    4   42 1
    14    5   16 am
    15    5    6 am
    16    6    7 2
    17    6    8 1
    18    8    9 1
    19    8   14 1
    20    8   10 1
    21   10   11 1
    22   10   12 1
    23   10   25 1
    24   12   13 1
    25   12   43 1
    26   12   55 1
    27   13   14 1
    28   13   18 1
    29   13   22 1
    30   14   15 1
    31   14   16 1
    32   16   17 2
    33   18   19 1
    34   18   44 1
    35   18   45 1
    36   19   20 2
    37   19   21 1
    38   22   23 2
    39   22   24 1
    40   25   30 ar
    41   25   26 ar
    42   26   27 ar
    43   26   46 1
    44   27   28 ar
    45   27   33 1
    46   28   29 ar
    47   28   32 1
    48   29   30 ar
    49   29   31 1
    50   30   47 1
    51   31   48 1
    52   31   49 1
    53   31   50 1
    54   32   51 1
    55   33   52 1
    56   33   53 1
    57   33   54 1
@<TRIPOS>MOLECULE
ZINC39482989
   43    44     0     0     0
SMALL
USER_CHARGES

@<TRIPOS>ATOM
      1 C1         -0.0187    1.5258    0.0104 C.3       1 <0>        -0.1466
      2 C2          0.0021   -0.0041    0.0020 C.3       1 <0>        -0.5727
      3 C3         -1.4333   -0.5336    0.0129 C.3       1 <0>        -0.1438
      4 S1          0.8511   -0.5891   -1.4904 S.o2      1 <0>         2.5001
      5 O1          1.0369   -1.9965   -1.4280 O.2       1 <0>        -0.9461
      6 O2          0.2851    0.0164   -2.6447 O.2       1 <0>        -0.9391
      7 C4          2.4757    0.0842   -1.3805 C.ar      1 <0>        -0.6933
      8 C5          2.7449    1.3270   -1.9230 C.ar      1 <0>         0.0092
      9 C6          4.0176    1.8611   -1.8402 C.ar      1 <0>        -0.1937
     10 C7          5.0282    1.1500   -1.2111 C.ar      1 <0>         0.2587
     11 C8          4.7566   -0.1036   -0.6634 C.ar      1 <0>         0.0991
     12 C9          3.4762   -0.6295   -0.7469 C.ar      1 <0>        -0.0048
     13 N1          5.7727   -0.8271   -0.0273 N.pl3     1 <0>        -0.6635
     14 C10         6.0168   -0.6767    1.4153 C.3       1 <0>         0.0995
     15 C11         6.0476   -2.0705    2.0516 C.3       1 <0>         0.0464
     16 N2          7.0225   -2.9084    1.3406 N.3       1 <0>        -0.6834
     17 C12         6.6311   -3.1086   -0.0611 C.3       1 <0>         0.1603
     18 H1          5.6342   -3.5477   -0.1013 H         1 <0>         0.1145
     19 C13         6.6202   -1.7620   -0.7828 C.3       1 <0>         0.1033
     20 Cl1         7.8083   -4.2144   -0.8624 Cl        1 <0>        -0.1668
     21 N3          6.3179    1.6887   -1.1265 N.pl3     1 <0>        -1.0688
     22 S2          6.5226    3.3208   -0.9355 S.o2      1 <0>         2.7659
     23 O3          7.9528    3.5779   -1.0028 O.2       1 <0>        -1.0706
     24 O4          5.8027    3.9668   -2.0220 O.2       1 <0>        -1.0692
     25 O5          5.9689    3.6667    0.3645 O.3       1 <0>        -1.0700
     26 H2          1.0039    1.9031    0.0027 H         1 <0>         0.0769
     27 H3         -0.5459    1.8868   -0.8726 H         1 <0>         0.0768
     28 H4         -0.5289    1.8773    0.9072 H         1 <0>         0.0777
     29 H5          0.5293   -0.3651    0.8851 H         1 <0>         0.1373
     30 H6         -1.9605   -0.1726   -0.8702 H         1 <0>         0.0728
     31 H7         -1.4185   -1.6235    0.0069 H         1 <0>         0.0710
     32 H8         -1.9435   -0.1821    0.9097 H         1 <0>         0.0821
     33 H9          1.9589    1.8822   -2.4133 H         1 <0>         0.1430
     34 H10         4.2246    2.8319   -2.2657 H         1 <0>         0.1766
     35 H11         3.2614   -1.5981   -0.3202 H         1 <0>         0.1361
     36 H12         6.9739   -0.1802    1.5748 H         1 <0>         0.0577
     37 H13         5.2163   -0.0876    1.8627 H         1 <0>         0.0844
     38 H14         6.3365   -1.9857    3.0992 H         1 <0>         0.0918
     39 H15         5.0589   -2.5240    1.9820 H         1 <0>         0.0801
     40 H16         7.9503   -2.5172    1.4046 H         1 <0>         0.3501
     41 H17         6.2184   -1.8900   -1.7880 H         1 <0>         0.0881
     42 H18         7.6364   -1.3717   -0.8386 H         1 <0>         0.0637
     43 H19         7.0914    1.1058   -1.1797 H         1 <0>         0.4092
@<TRIPOS>BOND
     1    1    2 1
     2    1   26 1
     3    1   27 1
     4    1   28 1
     5    2    3 1
     6    2    4 1
     7    2   29 1
     8    3   30 1
     9    3   31 1
    10    3   32 1
    11    4    5 2
    12    4    6 2
    13    4    7 1
    14    7   12 ar
    15    7    8 ar
    16    8    9 ar
    17    8   33 1
    18    9   10 ar
    19    9   34 1
    20   10   11 ar
    21   10   21 1
    22   11   12 ar
    23   11   13 1
    24   12   35 1
    25   13   19 1
    26   13   14 1
    27   14   15 1
    28   14   36 1
    29   14   37 1
    30   15   16 1
    31   15   38 1
    32   15   39 1
    33   16   17 1
    34   16   40 1
    35   17   18 1
    36   17   19 1
    37   17   20 1
    38   19   41 1
    39   19   42 1
    40   21   22 1
    41   21   43 1
    42   22   23 2
    43   22   24 2
    44   22   25 1
@<TRIPOS>MOLECULE
ZINC55211668
   42    43     0     0     0
SMALL
USER_CHARGES

@<TRIPOS>ATOM
      1 C1         -0.0167    1.3778    0.0096 C.ar      1 <0>        -0.0747
      2 C2          1.1663    2.0889    0.0021 C.ar      1 <0>        -0.1685
      3 C3          2.3871    1.4124   -0.0136 C.ar      1 <0>        -0.0918
      4 C4          2.4064    0.0177   -0.0213 C.ar      1 <0>        -0.1446
      5 C5          1.2127   -0.6874   -0.0133 C.ar      1 <0>         0.2237
      6 C6          0.0021   -0.0041    0.0020 C.ar      1 <0>        -0.1834
      7 N1          1.2264   -2.0844   -0.0214 N.pl3     1 <0>        -0.7126
      8 C7         -0.0351   -2.8293   -0.0128 C.3       1 <0>         0.0516
      9 C8          0.2548   -4.3081   -0.0242 C.2       1 <0>         0.4898
     10 O1          1.4082   -4.7032   -0.0382 O.co2     1 <0>        -0.6885
     11 O2         -0.6641   -5.1095   -0.0195 O.co2     1 <0>        -0.6902
     12 C9          3.6558    2.1718   -0.0227 C.2       1 <0>         0.5662
     13 O3          4.7178    1.5808   -0.0364 O.2       1 <0>        -0.5338
     14 N2          3.6346    3.5194   -0.0156 N.am      1 <0>        -0.7279
     15 C10         4.8916    4.2718   -0.0246 C.3       1 <0>         0.1088
     16 C11         4.5884    5.7715   -0.0139 C.3       1 <0>         0.1084
     17 N3          5.8454    6.5239   -0.0229 N.am      1 <0>        -0.7211
     18 C12         5.8243    7.8714   -0.0159 C.2       1 <0>         0.5669
     19 O4          4.7622    8.4625   -0.0021 O.2       1 <0>        -0.5298
     20 C13         7.0927    8.6307   -0.0249 C.ar      1 <0>        -0.1891
     21 C14         7.0845   10.0309   -0.0118 C.ar      1 <0>        -0.0154
     22 C15         8.2988   10.6939   -0.0206 C.ar      1 <0>        -0.1788
     23 C16         9.4711    9.9595   -0.0417 C.ar      1 <0>         0.1233
     24 N4          9.4483    8.6405   -0.0536 N.ar      1 <0>        -0.4864
     25 C17         8.3183    7.9642   -0.0406 C.ar      1 <0>         0.1361
     26 H1         -0.9602    1.9031    0.0260 H         1 <0>         0.1222
     27 H2          1.1473    3.1687    0.0081 H         1 <0>         0.1148
     28 H3          3.3480   -0.5111   -0.0339 H         1 <0>         0.1318
     29 H4         -0.9268   -0.5550    0.0083 H         1 <0>         0.1250
     30 H5          2.0711   -2.5610   -0.0327 H         1 <0>         0.4109
     31 H6         -0.6001   -2.5767    0.8844 H         1 <0>         0.0603
     32 H7         -0.6182   -2.5665   -0.8955 H         1 <0>         0.0603
     33 H8          2.7871    3.9911   -0.0047 H         1 <0>         0.4041
     34 H9          5.4762    4.0131    0.8582 H         1 <0>         0.0763
     35 H10         5.4582    4.0220   -0.9216 H         1 <0>         0.0763
     36 H11         4.0038    6.0302   -0.8967 H         1 <0>         0.0799
     37 H12         4.0218    6.0212    0.8831 H         1 <0>         0.0799
     38 H13         6.6930    6.0522   -0.0338 H         1 <0>         0.4038
     39 H14         6.1541   10.5792    0.0043 H         1 <0>         0.1488
     40 H15         8.3312   11.7734   -0.0114 H         1 <0>         0.1448
     41 H16        10.4204   10.4744   -0.0489 H         1 <0>         0.1630
     42 H17         8.3405    6.8845   -0.0463 H         1 <0>         0.1596
@<TRIPOS>BOND
     1    1    6 ar
     2    1    2 ar
     3    1   26 1
     4    2    3 ar
     5    2   27 1
     6    3    4 ar
     7    3   12 1
     8    4    5 ar
     9    4   28 1
    10    5    6 ar
    11    5    7 1
    12    6   29 1
    13    7    8 1
    14    7   30 1
    15    8    9 1
    16    8   31 1
    17    8   32 1
    18    9   10 2
    19    9   11 1
    20   12   13 2
    21   12   14 am
    22   14   15 1
    23   14   33 1
    24   15   16 1
    25   15   34 1
    26   15   35 1
    27   16   17 1
    28   16   36 1
    29   16   37 1
    30   17   18 am
    31   17   38 1
    32   18   19 2
    33   18   20 1
    34   20   25 ar
    35   20   21 ar
    36   21   22 ar
    37   21   39 1
    38   22   23 ar
    39   22   40 1
    40   23   24 ar
    41   23   41 1
    42   24   25 ar
    43   25   42 1
@<TRIPOS>MOLECULE
ZINC64101474
   51    52     0     0     0
SMALL
USER_CHARGES

@<TRIPOS>ATOM
      1 C1          1.2581    1.4037   -0.1966 C.3       1 <0>        -0.1587
      2 C2          0.9881   -0.1018   -0.1575 C.3       1 <0>         0.0805
      3 C3          1.4991   -0.7368   -1.4251 C.2       1 <0>         0.3495
      4 O1          2.8164   -0.7363   -1.6934 O.3       1 <0>        -0.5910
      5 C4          0.6258   -1.3116   -2.2993 C.2       1 <0>        -0.4106
      6 C5         -0.7774   -1.3122   -2.0134 C.1       1 <0>         0.3134
      7 N1         -1.8905   -1.3126   -1.7866 N.1       1 <0>        -0.5457
      8 C6          1.1249   -1.9319   -3.5374 C.2       1 <0>         0.4982
      9 O2          2.3067   -1.8550   -3.8238 O.2       1 <0>        -0.4796
     10 C7          0.2004   -2.6419   -4.4255 C.2       1 <0>        -0.3981
     11 C8         -0.0823   -2.1507   -5.7060 C.2       1 <0>         0.4897
     12 N2         -0.9502   -2.8421   -6.5056 N.am      1 <0>        -0.5449
     13 C9         -1.5259   -3.9769   -6.0723 C.2       1 <0>         0.7113
     14 O3         -2.2934   -4.5691   -6.8057 O.2       1 <0>        -0.5521
     15 N3         -1.2743   -4.4737   -4.8492 N.am      1 <0>        -0.5606
     16 C10        -0.4256   -3.8486   -4.0094 C.2       1 <0>         0.5716
     17 O4         -0.2012   -4.3095   -2.9051 O.2       1 <0>        -0.5037
     18 C11        -1.9277   -5.7144   -4.4248 C.3       1 <0>         0.0843
     19 C12        -1.2559   -2.3406   -7.8477 C.3       1 <0>         0.0727
     20 N4          0.4983   -1.0004   -6.1488 N.pl3     1 <0>        -0.8234
     21 O5          1.6573   -0.6767    0.9666 O.3       1 <0>        -0.3515
     22 C13         0.8718   -0.7018    2.1602 C.3       1 <0>         0.0659
     23 C14         1.6839   -1.3348    3.2919 C.3       1 <0>         0.0944
     24 C15         0.8030   -1.4746    4.5361 C.3       1 <0>        -0.1488
     25 C16         1.6391   -2.0529    5.6818 C.3       1 <0>        -0.1206
     26 C17         2.8489   -1.1453    5.9251 C.3       1 <0>        -0.1565
     27 C18         3.6508   -1.0183    4.6272 C.3       1 <0>         0.0588
     28 O6          2.8063   -0.5040    3.5954 O.3       1 <0>        -0.3656
     29 H1          2.3305    1.5783   -0.2837 H         1 <0>         0.0716
     30 H2          0.7477    1.8423   -1.0540 H         1 <0>         0.0610
     31 H3          0.8885    1.8630    0.7202 H         1 <0>         0.0491
     32 H4         -0.0843   -0.2764   -0.0704 H         1 <0>         0.0584
     33 H5         -1.3058   -6.5656   -4.7016 H         1 <0>         0.0688
     34 H6         -2.0652   -5.7011   -3.3436 H         1 <0>         0.0917
     35 H7         -2.8983   -5.7994   -4.9135 H         1 <0>         0.0857
     36 H8         -0.5473   -2.7595   -8.5622 H         1 <0>         0.0780
     37 H9         -2.2681   -2.6359   -8.1241 H         1 <0>         0.1010
     38 H10        -1.1798   -1.2533   -7.8554 H         1 <0>         0.0838
     39 H11         1.0332   -0.4631   -5.5437 H         1 <0>         0.4326
     40 H12         0.3768   -0.7188   -7.0690 H         1 <0>         0.4026
     41 H13         0.5970    0.3163    2.4357 H         1 <0>         0.0510
     42 H14        -0.0309   -1.2881    1.9888 H         1 <0>         0.0595
     43 H15         2.0338   -2.3194    2.9815 H         1 <0>         0.0678
     44 H16         0.4199   -0.4953    4.8230 H         1 <0>         0.0719
     45 H17        -0.0300   -2.1434    4.3194 H         1 <0>         0.0753
     46 H18         1.0330   -2.1028    6.5864 H         1 <0>         0.0661
     47 H19         1.9812   -3.0528    5.4149 H         1 <0>         0.0647
     48 H20         2.5071   -0.1594    6.2400 H         1 <0>         0.0693
     49 H21         3.4791   -1.5787    6.7017 H         1 <0>         0.0701
     50 H22         4.4892   -0.3393    4.7829 H         1 <0>         0.0915
     51 H23         4.0264   -1.9988    4.3345 H         1 <0>         0.0495
@<TRIPOS>BOND
     1    1    2 1
     2    1   29 1
     3    1   30 1
     4    1   31 1
     5    2    3 1
     6    2   21 1
     7    2   32 1
     8    3    4 1
     9    3    5 2
    10    5    6 1
    11    5    8 1
    12    6    7 3
    13    8    9 2
    14    8   10 1
    15   10   16 1
    16   10   11 2
    17   11   12 1
    18   11   20 1
    19   12   13 am
    20   12   19 1
    21   13   14 2
    22   13   15 am
    23   15   16 am
    24   15   18 1
    25   16   17 2
    26   18   33 1
    27   18   34 1
    28   18   35 1
    29   19   36 1
    30   19   37 1
    31   19   38 1
    32   20   39 1
    33   20   40 1
    34   21   22 1
    35   22   23 1
    36   22   41 1
    37   22   42 1
    38   23   28 1
    39   23   24 1
    40   23   43 1
    41   24   25 1
    42   24   44 1
    43   24   45 1
    44   25   26 1
    45   25   46 1
    46   25   47 1
    47   26   27 1
    48   26   48 1
    49   26   49 1
    50   27   28 1
    51   27   50 1
    52   27   51 1
@<TRIPOS>MOLECULE
ZINC19474985
   39    40     0     0     0
SMALL
USER_CHARGES
4-amino-N-[2-(4-hydroxy-1-piperidyl)-2-oxo-ethyl]benzamide
@<TRIPOS>ATOM
      1 C1         -1.3225    3.3297    0.0322 C.ar      1 <0>        -0.0291
      2 C2         -2.5251    3.9986    0.0352 C.ar      1 <0>        -0.2160
      3 C3         -3.7203    3.2847    0.0375 C.ar      1 <0>         0.2564
      4 C4         -3.7031    1.8927    0.0299 C.ar      1 <0>        -0.2176
      5 C5         -2.5038    1.2180    0.0205 C.ar      1 <0>        -0.0039
      6 C6         -1.3019    1.9319    0.0187 C.ar      1 <0>        -0.2071
      7 C7         -0.0144    1.2118    0.0087 C.2       1 <0>         0.5707
      8 O1          0.0021   -0.0041    0.0020 O.2       1 <0>        -0.5515
      9 N1          1.1435    1.9015    0.0014 N.am      1 <0>        -0.7330
     10 C8          2.4220    1.1863   -0.0147 C.3       1 <0>         0.1030
     11 C9          3.5540    2.1811   -0.0202 C.2       1 <0>         0.5158
     12 O2          3.3162    3.3703   -0.0115 O.2       1 <0>        -0.5369
     13 N2          4.8306    1.7492   -0.0347 N.am      1 <0>        -0.6102
     14 C10         5.1345    0.3117   -0.0391 C.3       1 <0>         0.1037
     15 C11         6.0675    0.0133   -1.2226 C.3       1 <0>        -0.1292
     16 C12         7.3002    0.9157   -1.1330 C.3       1 <0>         0.1154
     17 C13         6.8688    2.3815   -1.2180 C.3       1 <0>        -0.1654
     18 C14         5.9448    2.7068   -0.0402 C.3       1 <0>         0.1108
     19 O3          8.1880    0.6174   -2.2123 O.3       1 <0>        -0.6007
     20 N3         -4.9338    3.9635    0.0469 N.pl3     1 <0>        -0.8897
     21 H1         -0.3956    3.8839    0.0357 H         1 <0>         0.1243
     22 H2         -2.5417    5.0784    0.0404 H         1 <0>         0.1250
     23 H3         -4.6320    1.3417    0.0316 H         1 <0>         0.1256
     24 H4         -2.4911    0.1381    0.0143 H         1 <0>         0.1337
     25 H5          1.1286    3.0014    0.0075 H         1 <0>         0.4317
     26 H6          2.4974    0.5499    0.8794 H         1 <0>         0.0993
     27 H7          2.4802    0.5596   -0.9168 H         1 <0>         0.0993
     28 H8          5.6276    0.0383    0.9054 H         1 <0>         0.0801
     29 H9          4.2007   -0.2602   -0.1442 H         1 <0>         0.0974
     30 H10         6.3790   -1.0411   -1.1871 H         1 <0>         0.0875
     31 H11         5.5364    0.2072   -2.1662 H         1 <0>         0.0774
     32 H12         7.8701    0.7211   -0.2125 H         1 <0>         0.0545
     33 H13         7.7577    3.0282   -1.1781 H         1 <0>         0.0802
     34 H14         6.3336    2.5520   -2.1638 H         1 <0>         0.0765
     35 H15         5.5501    3.7280   -0.1469 H         1 <0>         0.0991
     36 H16         6.5024    2.6261    0.9046 H         1 <0>         0.0727
     37 H17         9.1344    1.1686   -2.3143 H         1 <0>         0.4093
     38 H18        -5.8789    3.4006    0.0487 H         1 <0>         0.4208
     39 H19        -4.9487    5.0634    0.0525 H         1 <0>         0.4203
@<TRIPOS>BOND
     1    1    6 ar
     2    1    2 ar
     3    1   21 1
     4    2    3 ar
     5    2   22 1
     6    3    4 ar
     7    3   20 1
     8    4    5 ar
     9    4   23 1
    10    5    6 ar
    11    5   24 1
    12    6    7 1
    13    7    8 2
    14    7    9 am
    15    9   10 1
    16    9   25 1
    17   10   11 1
    18   10   26 1
    19   10   27 1
    20   11   12 2
    21   11   13 am
    22   13   18 1
    23   13   14 1
    24   14   15 1
    25   14   28 1
    26   14   29 1
    27   15   16 1
    28   15   30 1
    29   15   31 1
    30   16   17 1
    31   16   19 1
    32   16   32 1
    33   17   18 1
    34   17   33 1
    35   17   34 1
    36   18   35 1
    37   18   36 1
    38   19   37 1
    39   20   38 1
    40   20   39 1
@<TRIPOS>MOLECULE
ZINC37471505
   24    24     0     0     0
SMALL
USER_CHARGES

@<TRIPOS>ATOM
      1 C1         -0.1199    1.1963    0.3955 C.2       1 <0>         0.2107
      2 C2          1.1891    1.5321    0.3415 C.2       1 <0>        -0.8546
      3 C3          1.9422    0.3596    0.5146 C.2       1 <0>         0.4188
      4 N1          1.1071   -0.6412    0.6666 N.2       1 <0>        -0.3409
      5 N2         -0.1974   -0.1363    0.5949 N.pl3     1 <0>        -0.4455
      6 H1         -1.0139   -0.6538    0.6752 H         1 <0>         0.4490
      7 N3          3.3394    0.2732    0.5227 N.pl3     1 <0>        -0.8387
      8 S1          1.8350    3.1532    0.0972 S.o2      1 <0>         2.7159
      9 O1          2.8400    3.0438   -0.9014 O.2       1 <0>        -0.9388
     10 O2          0.7169    4.0196   -0.0390 O.2       1 <0>        -0.9439
     11 N4          2.6043    3.5899    1.4971 N.pl3     1 <0>        -0.9921
     12 C4          4.0553    3.4273    1.6169 C.3       1 <0>         0.2182
     13 C5          4.7181    4.7097    1.3291 C.1       1 <0>         0.1794
     14 N5          5.2297    5.6994    1.1070 N.1       1 <0>        -0.3909
     15 C6          1.8338    4.1387    2.6158 C.3       1 <0>         0.2108
     16 C7          1.4933    3.0571    3.5544 C.1       1 <0>         0.1731
     17 N6          1.2304    2.2224    4.2788 N.1       1 <0>        -0.3951
     18 H2         -0.9548    1.8747    0.3006 H         1 <0>         0.1997
     19 H3          3.8755    1.0796    0.4658 H         1 <0>         0.4048
     20 H4          3.7714   -0.5930    0.5852 H         1 <0>         0.4150
     21 H5          4.3029    3.1096    2.6298 H         1 <0>         0.1360
     22 H6          4.3964    2.6744    0.9064 H         1 <0>         0.1258
     23 H7          2.4285    4.8931    3.1311 H         1 <0>         0.1371
     24 H8          0.9182    4.5935    2.2379 H         1 <0>         0.1464
@<TRIPOS>BOND
     1    1    5 1
     2    1    2 2
     3    1   18 1
     4    2    3 1
     5    2    8 1
     6    3    4 2
     7    3    7 1
     8    4    5 1
     9    5    6 1
    10    7   19 1
    11    7   20 1
    12    8    9 2
    13    8   10 2
    14    8   11 1
    15   11   12 1
    16   11   15 1
    17   12   13 1
    18   12   21 1
    19   12   22 1
    20   13   14 3
    21   15   16 1
    22   15   23 1
    23   15   24 1
    24   16   17 3
@<TRIPOS>MOLECULE
ZINC42489491
   31    32     0     0     0
SMALL
USER_CHARGES

@<TRIPOS>ATOM
      1 C1         -0.1503    1.3632    0.1657 C.3       1 <0>         0.1005
      2 N1         -0.0665   -0.0990    0.1324 N.pl3     1 <0>        -0.3778
      3 C2         -0.0809   -0.8700   -0.9750 C.2       1 <0>         0.0828
      4 C3          0.0158   -2.1607   -0.5803 C.2       1 <0>        -0.2613
      5 C4          0.0918   -2.1791    0.8163 C.2       1 <0>         0.0582
      6 N2          0.0486   -0.9434    1.2442 N.2       1 <0>        -0.3006
      7 C5          0.0369   -3.3655   -1.4853 C.3       1 <0>         0.1970
      8 N3          1.4206   -3.6756   -1.8533 N.am      1 <0>        -0.6075
      9 C6          2.2116   -4.5893   -1.0252 C.3       1 <0>         0.0767
     10 C7          1.9659   -3.1204   -2.9537 C.2       1 <0>         0.6060
     11 O1          1.3455   -2.2852   -3.5849 O.2       1 <0>        -0.5599
     12 C8          3.3079   -3.5231   -3.3907 C.2       1 <0>        -0.3704
     13 C9          3.8733   -4.8162   -3.2903 C.2       1 <0>         0.1140
     14 N4          5.0775   -4.7730   -3.7858 N.2       1 <0>        -0.3005
     15 N5          5.3489   -3.4728   -4.2248 N.pl3     1 <0>        -0.4990
     16 H1          6.1761   -3.1739   -4.6338 H         1 <0>         0.4394
     17 C10         4.2648   -2.7064   -3.9888 C.2       1 <0>         0.4316
     18 N6          4.1299   -1.3645   -4.2817 N.pl3     1 <0>        -0.8338
     19 H2          0.8531    1.7859    0.1139 H         1 <0>         0.0736
     20 H3         -0.7362    1.7131   -0.6842 H         1 <0>         0.0880
     21 H4         -0.6300    1.6787    1.0923 H         1 <0>         0.0895
     22 H5         -0.1564   -0.5197   -1.9938 H         1 <0>         0.1757
     23 H6          0.1765   -3.0607    1.4343 H         1 <0>         0.1810
     24 H7         -0.4007   -4.2179   -0.9657 H         1 <0>         0.0855
     25 H8         -0.5398   -3.1537   -2.3857 H         1 <0>         0.0882
     26 H9          2.0146   -5.6174   -1.3287 H         1 <0>         0.0574
     27 H10         3.2716   -4.3696   -1.1525 H         1 <0>         0.0769
     28 H11         1.9371   -4.4605    0.0218 H         1 <0>         0.0682
     29 H12         3.3904   -5.6881   -2.8745 H         1 <0>         0.1902
     30 H13         3.3045   -0.9020   -4.0680 H         1 <0>         0.4270
     31 H14         4.8605   -0.8838   -4.7013 H         1 <0>         0.4036
@<TRIPOS>BOND
     1    1    2 1
     2    1   19 1
     3    1   20 1
     4    1   21 1
     5    2    6 1
     6    2    3 1
     7    3    4 2
     8    3   22 1
     9    4    5 1
    10    4    7 1
    11    5    6 2
    12    5   23 1
    13    7    8 1
    14    7   24 1
    15    7   25 1
    16    8    9 1
    17    8   10 am
    18    9   26 1
    19    9   27 1
    20    9   28 1
    21   10   11 2
    22   10   12 1
    23   12   17 2
    24   12   13 1
    25   13   14 2
    26   13   29 1
    27   14   15 1
    28   15   16 1
    29   15   17 1
    30   17   18 1
    31   18   30 1
    32   18   31 1
@<TRIPOS>MOLECULE
ZINC49248426
   36    36     0     0     0
SMALL
USER_CHARGES

@<TRIPOS>ATOM
      1 C1         -0.0184    1.5028    0.0103 C.3       1 <0>        -0.0762
      2 C2          0.0021   -0.0041    0.0020 C.2       1 <0>        -0.0087
      3 C3         -1.0805   -0.7968    0.0027 C.2       1 <0>        -0.1875
      4 C4         -0.5714   -2.1760   -0.0080 C.2       1 <0>        -0.2476
      5 C5          0.7883   -2.0655   -0.0142 C.2       1 <0>         0.0845
      6 O1          1.1060   -0.7673   -0.0131 O.3       1 <0>        -0.1727
      7 C6          1.7659   -3.2123   -0.0259 C.3       1 <0>        -0.0841
      8 C7         -1.3643   -3.4183   -0.0115 C.2       1 <0>         0.5977
      9 O2         -0.8036   -4.4975   -0.0203 O.2       1 <0>        -0.5416
     10 N1         -2.7107   -3.3585   -0.0049 N.am      1 <0>        -0.7141
     11 C8         -3.4988   -4.5934   -0.0083 C.3       1 <0>         0.1057
     12 C9         -4.9667   -4.2525    0.0005 C.2       1 <0>         0.5185
     13 O3         -5.3198   -3.0922    0.0087 O.2       1 <0>        -0.5331
     14 N2         -5.8872   -5.2369   -0.0009 N.am      1 <0>        -0.5967
     15 C10        -5.4608   -6.6385   -0.0109 C.3       1 <0>         0.0743
     16 C11        -7.3142   -4.9055    0.0076 C.3       1 <0>         0.0946
     17 C12        -7.8101   -4.7838   -1.4102 C.2       1 <0>         0.4991
     18 O4         -7.0467   -4.9568   -2.3366 O.2       1 <0>        -0.5325
     19 N3         -9.1019   -4.4826   -1.6488 N.am      1 <0>        -0.8538
     20 H1          1.0042    1.8801    0.0026 H         1 <0>         0.0782
     21 H2         -0.5455    1.8639   -0.8728 H         1 <0>         0.0881
     22 H3         -0.5286    1.8543    0.9071 H         1 <0>         0.0882
     23 H4         -2.1146   -0.4854    0.0100 H         1 <0>         0.1573
     24 H5          1.9965   -3.4827   -1.0563 H         1 <0>         0.0902
     25 H6          2.6815   -2.9145    0.4852 H         1 <0>         0.0793
     26 H7          1.3269   -4.0692    0.4851 H         1 <0>         0.1095
     27 H8         -3.1579   -2.4977    0.0021 H         1 <0>         0.4125
     28 H9         -3.2653   -5.1710   -0.9027 H         1 <0>         0.1042
     29 H10        -3.2571   -5.1812    0.8772 H         1 <0>         0.1032
     30 H11        -5.3502   -6.9919    1.0143 H         1 <0>         0.0672
     31 H12        -6.2088   -7.2422   -0.5247 H         1 <0>         0.0773
     32 H13        -4.5060   -6.7240   -0.5297 H         1 <0>         0.0799
     33 H14        -7.8671   -5.6932    0.5195 H         1 <0>         0.1142
     34 H15        -7.4644   -3.9594    0.5276 H         1 <0>         0.1180
     35 H16        -9.7125   -4.3442   -0.9079 H         1 <0>         0.4029
     36 H17        -9.4211   -4.4042   -2.5614 H         1 <0>         0.4042
@<TRIPOS>BOND
     1    1    2 1
     2    1   20 1
     3    1   21 1
     4    1   22 1
     5    2    6 1
     6    2    3 2
     7    3    4 1
     8    3   23 1
     9    4    5 2
    10    4    8 1
    11    5    6 1
    12    5    7 1
    13    7   24 1
    14    7   25 1
    15    7   26 1
    16    8    9 2
    17    8   10 am
    18   10   11 1
    19   10   27 1
    20   11   12 1
    21   11   28 1
    22   11   29 1
    23   12   13 2
    24   12   14 am
    25   14   15 1
    26   14   16 1
    27   15   30 1
    28   15   31 1
    29   15   32 1
    30   16   17 1
    31   16   33 1
    32   16   34 1
    33   17   18 2
    34   17   19 am
    35   19   35 1
    36   19   36 1
@<TRIPOS>MOLECULE
ZINC51090978
   35    36     0     0     0
SMALL
USER_CHARGES

@<TRIPOS>ATOM
      1 C1          0.8991    1.1743   -0.0949 C.3       1 <0>         0.0646
      2 N1          0.4682   -0.2259   -0.1017 N.am      1 <0>        -0.5960
      3 C2          0.6155   -1.0434    1.1050 C.3       1 <0>         0.1343
      4 H1          0.2331   -2.0470    0.9186 H         1 <0>         0.1277
      5 C3         -0.1600   -0.3996    2.2663 C.3       1 <0>        -0.1385
      6 C4          0.2438   -1.0655    3.6038 C.3       1 <0>        -0.5751
      7 S1          1.9653   -1.6223    3.2742 S.o2      1 <0>         2.3757
      8 O1          2.0167   -3.0399    3.3576 O.2       1 <0>        -0.9277
      9 O2          2.8608   -0.8431    4.0554 O.2       1 <0>        -0.9308
     10 C5          2.1158   -1.1194    1.5083 C.3       1 <0>        -0.5968
     11 C6         -0.0636   -0.7619   -1.2181 C.2       1 <0>         0.5793
     12 O3         -0.5089   -1.8933   -1.1968 O.2       1 <0>        -0.5397
     13 C7         -0.1054    0.0234   -2.4651 C.ar      1 <0>        -0.2658
     14 C8          1.0122    0.7539   -2.8852 C.ar      1 <0>         0.0041
     15 C9          0.9221    1.4741   -4.0629 C.ar      1 <0>        -0.2437
     16 C10        -0.2575    1.4531   -4.7860 C.ar      1 <0>         0.1818
     17 N2         -1.2998    0.7590   -4.3733 N.ar      1 <0>        -0.5303
     18 C11        -1.2661    0.0475   -3.2568 C.ar      1 <0>         0.4568
     19 N3         -2.3809   -0.6704   -2.8650 N.pl3     1 <0>        -0.5560
     20 N4         -3.5274   -0.6096   -3.6052 N.3       1 <0>        -0.5970
     21 H2          1.9132    1.2443   -0.4883 H         1 <0>         0.0663
     22 H3          0.2264    1.7644   -0.7173 H         1 <0>         0.0818
     23 H4          0.8782    1.5559    0.9259 H         1 <0>         0.0812
     24 H5          0.0694    0.6651    2.3084 H         1 <0>         0.0931
     25 H6         -1.2298   -0.5321    2.1046 H         1 <0>         0.1019
     26 H7          0.2210   -0.3415    4.4184 H         1 <0>         0.1466
     27 H8         -0.4022   -1.9157    3.8228 H         1 <0>         0.1438
     28 H9          2.6424   -1.8761    0.9267 H         1 <0>         0.1471
     29 H10         2.5987   -0.1467    1.4151 H         1 <0>         0.1444
     30 H11         1.9225    0.7556   -2.3040 H         1 <0>         0.1399
     31 H12         1.7660    2.0486   -4.4151 H         1 <0>         0.1402
     32 H13        -0.3258    2.0160   -5.7051 H         1 <0>         0.1631
     33 H14        -2.3488   -1.2173   -2.0645 H         1 <0>         0.4192
     34 H15        -3.3535   -0.8733   -4.5635 H         1 <0>         0.3472
     35 H16        -4.2514   -1.1825   -3.1982 H         1 <0>         0.3574
@<TRIPOS>BOND
     1    1    2 1
     2    1   21 1
     3    1   22 1
     4    1   23 1
     5    2    3 1
     6    2   11 am
     7    3    4 1
     8    3   10 1
     9    3    5 1
    10    5    6 1
    11    5   24 1
    12    5   25 1
    13    6    7 1
    14    6   26 1
    15    6   27 1
    16    7    8 2
    17    7    9 2
    18    7   10 1
    19   10   28 1
    20   10   29 1
    21   11   12 2
    22   11   13 1
    23   13   18 ar
    24   13   14 ar
    25   14   15 ar
    26   14   30 1
    27   15   16 ar
    28   15   31 1
    29   16   17 ar
    30   16   32 1
    31   17   18 ar
    32   18   19 1
    33   19   20 1
    34   19   33 1
    35   20   34 1
    36   20   35 1
@<TRIPOS>MOLECULE
ZINC20080833
   19    19     0     0     0
SMALL
USER_CHARGES
4-(2-amino-2-oxo-ethoxy)thiophene-2-carboxylic acid
@<TRIPOS>ATOM
      1 C1          2.2396    1.0562   -0.0137 C.2       1 <0>        -0.1688
      2 C2          1.2998    2.0592    0.0007 C.2       1 <0>         0.0973
      3 C3         -0.0214    1.7292    0.0116 C.2       1 <0>        -0.3598
      4 S1          0.0021   -0.0041    0.0020 S.3       1 <0>         0.1464
      5 C4          1.7690   -0.2495   -0.0162 C.2       1 <0>        -0.1174
      6 C5          2.5256   -1.5022   -0.0308 C.2       1 <0>         0.5242
      7 O1          3.7417   -1.4781   -0.0426 O.co2     1 <0>        -0.6065
      8 O2          1.8743   -2.6837   -0.0312 O.co2     1 <0>        -0.7364
      9 O3          1.6849    3.3657    0.0036 O.3       1 <0>        -0.2890
     10 C6          0.6470    4.3479    0.0189 C.3       1 <0>         0.0430
     11 C7          1.2588    5.7252    0.0199 C.2       1 <0>         0.5201
     12 O4          2.4648    5.8530    0.0086 O.2       1 <0>        -0.5258
     13 N1          0.4657    6.8148    0.0333 N.am      1 <0>        -0.8770
     14 H1          3.2973    1.2745   -0.0222 H         1 <0>         0.1484
     15 H2         -0.8771    2.3882    0.0194 H         1 <0>         0.1777
     16 H3          0.0154    4.2279   -0.8737 H         1 <0>         0.0886
     17 H4          0.0331    4.2187    0.9225 H         1 <0>         0.0887
     18 H5          0.9122    7.8201    0.0340 H         1 <0>         0.4263
     19 H6         -0.6281    6.6988    0.0435 H         1 <0>         0.4201
@<TRIPOS>BOND
     1    1    5 2
     2    1    2 1
     3    1   14 1
     4    2    3 2
     5    2    9 1
     6    3    4 1
     7    3   15 1
     8    4    5 1
     9    5    6 1
    10    6    7 2
    11    6    8 1
    12    9   10 1
    13   10   11 1
    14   10   16 1
    15   10   17 1
    16   11   12 2
    17   11   13 am
    18   13   18 1
    19   13   19 1
@<TRIPOS>MOLECULE
ZINC35572252
   29    31     0     0     0
SMALL
USER_CHARGES

@<TRIPOS>ATOM
      1 C1          0.2675    1.5057    0.8394 C.ar      1 <0>        -0.1208
      2 C2          1.3136    1.9387    1.6408 C.ar      1 <0>        -0.1013
      3 C3          2.4226    1.1413    1.8356 C.ar      1 <0>        -0.0911
      4 C4          2.4949   -0.1023    1.2278 C.ar      1 <0>        -0.0017
      5 C5          1.4380   -0.5450    0.4161 C.ar      1 <0>         0.0298
      6 C6          0.3217    0.2735    0.2276 C.ar      1 <0>        -0.0628
      7 N1          1.7834   -1.7782   -0.0360 N.2       1 <0>        -0.4705
      8 C7          2.9597   -2.0899    0.4486 C.2       1 <0>         0.3222
      9 O1          3.4195   -1.0886    1.2229 O.3       1 <0>        -0.2138
     10 C8          3.6755   -3.3534    0.1857 C.ar      1 <0>        -0.1471
     11 C9          3.0048   -4.5740    0.2838 C.ar      1 <0>         0.0713
     12 C10         3.6789   -5.7510    0.0371 C.ar      1 <0>        -0.7122
     13 C11         5.0203   -5.7296   -0.3078 C.ar      1 <0>         0.0427
     14 C12         5.6967   -4.5303   -0.4087 C.ar      1 <0>        -0.2240
     15 C13         5.0322   -3.3348   -0.1699 C.ar      1 <0>         0.2778
     16 N2          5.7105   -2.1242   -0.2771 N.pl3     1 <0>        -0.8665
     17 S1          2.8301   -7.2900    0.1616 S.o2      1 <0>         2.6997
     18 O2          3.8130   -8.2829    0.5665 O.2       1 <0>        -1.0642
     19 O3          1.7879   -7.1179    1.1617 O.2       1 <0>        -1.0637
     20 O4          2.2789   -7.5761   -1.1538 O.3       1 <0>        -1.0618
     21 H1         -0.5970    2.1374    0.6980 H         1 <0>         0.1360
     22 H2          1.2598    2.9073    2.1155 H         1 <0>         0.1382
     23 H3          3.2334    1.4858    2.4604 H         1 <0>         0.1331
     24 H4         -0.4953   -0.0588   -0.3957 H         1 <0>         0.1370
     25 H5          1.9591   -4.5961    0.5531 H         1 <0>         0.1425
     26 H6          5.5403   -6.6568   -0.4986 H         1 <0>         0.1413
     27 H7          6.7426   -4.5217   -0.6778 H         1 <0>         0.1311
     28 H8          5.2257   -1.2879   -0.1966 H         1 <0>         0.3966
     29 H9          6.6679   -2.1168   -0.4323 H         1 <0>         0.4023
@<TRIPOS>BOND
     1    1    6 ar
     2    1    2 ar
     3    1   21 1
     4    2    3 ar
     5    2   22 1
     6    3    4 ar
     7    3   23 1
     8    4    9 1
     9    4    5 ar
    10    5    6 ar
    11    5    7 1
    12    6   24 1
    13    7    8 2
    14    8    9 1
    15    8   10 1
    16   10   15 ar
    17   10   11 ar
    18   11   12 ar
    19   11   25 1
    20   12   13 ar
    21   12   17 1
    22   13   14 ar
    23   13   26 1
    24   14   15 ar
    25   14   27 1
    26   15   16 1
    27   16   28 1
    28   16   29 1
    29   17   18 2
    30   17   19 2
    31   17   20 1
@<TRIPOS>MOLECULE
ZINC40522301
   37    38     0     0     0
SMALL
USER_CHARGES

@<TRIPOS>ATOM
      1 C1          0.0241    1.5032    0.0058 C.3       1 <0>        -0.1068
      2 C2          0.0332   -0.0037   -0.0012 C.ar      1 <0>        -0.1133
      3 C3          0.6309   -0.6853   -1.0457 C.ar      1 <0>        -0.1056
      4 C4          0.6410   -2.0662   -1.0551 C.ar      1 <0>        -0.1115
      5 C5          0.0500   -2.7705   -0.0142 C.ar      1 <0>         0.1745
      6 C6         -0.5492   -2.0833    1.0330 C.ar      1 <0>        -0.1229
      7 C7         -0.5510   -0.7020    1.0393 C.ar      1 <0>        -0.1054
      8 C8         -1.1920   -2.8437    2.1642 C.3       1 <0>        -0.1088
      9 N1          0.0581   -4.1699   -0.0209 N.am      1 <0>        -0.6893
     10 C9         -0.0405   -4.8388   -1.1869 C.2       1 <0>         0.7281
     11 O1         -0.0539   -4.2286   -2.2385 O.2       1 <0>        -0.5557
     12 N2         -0.1242   -6.1839   -1.1871 N.am      1 <0>        -0.5964
     13 C10        -0.1257   -7.0449    0.0096 C.3       1 <0>         0.0696
     14 C11        -0.8408   -8.3443   -0.4376 C.3       1 <0>         0.0888
     15 H1         -0.5326   -9.1909    0.1759 H         1 <0>         0.0771
     16 C12        -0.3276   -8.4968   -1.8939 C.3       1 <0>        -0.0983
     17 C13        -0.2355   -7.0353   -2.3806 C.3       1 <0>         0.0877
     18 H2         -1.1324   -6.7721   -2.9413 H         1 <0>         0.0702
     19 C14         0.9842   -6.8629   -3.2486 C.2       1 <0>         0.4948
     20 O2          1.9385   -6.2239   -2.8392 O.co2     1 <0>        -0.6775
     21 O3          1.0168   -7.3625   -4.3604 O.co2     1 <0>        -0.6998
     22 O4         -2.2605   -8.1838   -0.4082 O.3       1 <0>        -0.5527
     23 H3          0.9171    1.8696    0.5121 H         1 <0>         0.0644
     24 H4          0.0113    1.8713   -1.0201 H         1 <0>         0.0628
     25 H5         -0.8628    1.8587    0.5304 H         1 <0>         0.0606
     26 H6          1.0900   -0.1370   -1.8551 H         1 <0>         0.1212
     27 H7          1.1076   -2.5978   -1.8712 H         1 <0>         0.1478
     28 H8         -1.0130   -0.1669    1.8557 H         1 <0>         0.1192
     29 H9         -0.4543   -3.0243    2.9461 H         1 <0>         0.0659
     30 H10        -2.0176   -2.2599    2.5715 H         1 <0>         0.0665
     31 H11        -1.5692   -3.7967    1.7934 H         1 <0>         0.0612
     32 H12         0.1347   -4.6585    0.8135 H         1 <0>         0.3980
     33 H13         0.8957   -7.2623    0.3219 H         1 <0>         0.0735
     34 H14        -0.6775   -6.5678    0.8195 H         1 <0>         0.0655
     35 H15         0.6518   -8.9748   -1.9096 H         1 <0>         0.0878
     36 H16        -1.0413   -9.0576   -2.4975 H         1 <0>         0.0871
     37 H17        -2.6161   -7.9884    0.4696 H         1 <0>         0.3717
@<TRIPOS>BOND
     1    1    2 1
     2    1   23 1
     3    1   24 1
     4    1   25 1
     5    2    7 ar
     6    2    3 ar
     7    3    4 ar
     8    3   26 1
     9    4    5 ar
    10    4   27 1
    11    5    6 ar
    12    5    9 1
    13    6    7 ar
    14    6    8 1
    15    7   28 1
    16    8   29 1
    17    8   30 1
    18    8   31 1
    19    9   10 am
    20    9   32 1
    21   10   11 2
    22   10   12 am
    23   12   17 1
    24   12   13 1
    25   13   14 1
    26   13   33 1
    27   13   34 1
    28   14   15 1
    29   14   16 1
    30   14   22 1
    31   16   17 1
    32   16   35 1
    33   16   36 1
    34   17   18 1
    35   17   19 1
    36   19   20 2
    37   19   21 1
    38   22   37 1
@<TRIPOS>MOLECULE
ZINC41038053
   37    38     0     0     0
SMALL
USER_CHARGES

@<TRIPOS>ATOM
      1 C1         -0.0187    1.5258    0.0104 C.3       1 <0>        -0.1549
      2 C2          0.0021   -0.0041    0.0020 C.3       1 <0>        -0.0801
      3 H1         -1.0205   -0.3814    0.0098 H         1 <0>         0.0914
      4 C3          0.7182   -0.4975   -1.2568 C.3       1 <0>        -0.1139
      5 C4          0.7390   -2.0273   -1.2652 C.3       1 <0>        -0.1189
      6 C5          1.4790   -2.5342   -0.0257 C.3       1 <0>        -0.1126
      7 C6          0.7628   -2.0407    1.2331 C.3       1 <0>        -0.1303
      8 C7          0.7421   -0.5109    1.2415 C.3       1 <0>         0.2003
      9 C8          0.0367   -0.0249    2.4814 C.2       1 <0>         0.4755
     10 O1         -1.1399    0.2468    2.4399 O.2       1 <0>        -0.5344
     11 O2          0.7155    0.1062    3.6320 O.3       1 <0>        -0.4559
     12 N1          2.1165   -0.0038    1.2311 N.am      1 <0>        -0.7244
     13 C9          2.9603   -0.3235    2.2323 C.2       1 <0>         0.5828
     14 O3          2.5810   -1.0326    3.1438 O.2       1 <0>        -0.4850
     15 C10         4.3472    0.1882    2.2218 C.ar      1 <0>        -0.1064
     16 C11         5.2192   -0.1465    3.2631 C.ar      1 <0>         0.2716
     17 C12         6.5226    0.3454    3.2349 C.ar      1 <0>        -0.2327
     18 C13         6.9011    1.1474    2.1736 C.ar      1 <0>        -0.1053
     19 C14         5.9814    1.4374    1.1758 C.ar      1 <0>        -0.0575
     20 N2          4.7589    0.9584    1.2205 N.ar      1 <0>        -0.4218
     21 O4          4.8025   -0.9365    4.2840 O.3       1 <0>        -0.6607
     22 H2          1.0039    1.9031    0.0027 H         1 <0>         0.0600
     23 H3         -0.5459    1.8868   -0.8726 H         1 <0>         0.0604
     24 H4         -0.5289    1.8773    0.9072 H         1 <0>         0.0601
     25 H5          0.1910   -0.1364   -2.1398 H         1 <0>         0.0681
     26 H6          1.7408   -0.1202   -1.2645 H         1 <0>         0.0704
     27 H7         -0.2836   -2.4046   -1.2575 H         1 <0>         0.0605
     28 H8          1.2492   -2.3788   -2.1620 H         1 <0>         0.0629
     29 H9          1.4937   -3.6240   -0.0317 H         1 <0>         0.0638
     30 H10         2.5015   -2.1569   -0.0334 H         1 <0>         0.0711
     31 H11        -0.2598   -2.4180    1.2409 H         1 <0>         0.0674
     32 H12         1.2900   -2.4018    2.1162 H         1 <0>         0.0975
     33 H13         0.1790    0.4238    4.3712 H         1 <0>         0.3863
     34 H14         2.4192    0.5620    0.5037 H         1 <0>         0.4050
     35 H15         7.2208    0.1062    4.0234 H         1 <0>         0.1084
     36 H16         7.9039    1.5449    2.1220 H         1 <0>         0.1040
     37 H17         6.2765    2.0639    0.3471 H         1 <0>         0.1275
@<TRIPOS>BOND
     1    1    2 1
     2    1   22 1
     3    1   23 1
     4    1   24 1
     5    2    3 1
     6    2    8 1
     7    2    4 1
     8    4    5 1
     9    4   25 1
    10    4   26 1
    11    5    6 1
    12    5   27 1
    13    5   28 1
    14    6    7 1
    15    6   29 1
    16    6   30 1
    17    7    8 1
    18    7   31 1
    19    7   32 1
    20    8    9 1
    21    8   12 1
    22    9   10 2
    23    9   11 1
    24   11   33 1
    25   12   13 am
    26   12   34 1
    27   13   14 2
    28   13   15 1
    29   15   16 ar
    30   15   20 ar
    31   16   21 1
    32   16   17 ar
    33   17   18 ar
    34   17   35 1
    35   18   19 ar
    36   18   36 1
    37   19   20 ar
    38   19   37 1
@<TRIPOS>MOLECULE
ZINC50376319
   43    44     0     0     0
SMALL
USER_CHARGES

@<TRIPOS>ATOM
      1 C1         -0.0173    1.4248    0.0099 C.3       1 <0>         0.0325
      2 O1          0.0021   -0.0041    0.0020 O.3       1 <0>        -0.3735
      3 C2          0.6518   -0.5703   -1.1379 C.3       1 <0>         0.0783
      4 H1          0.5567    0.0922   -1.9982 H         1 <0>         0.0680
      5 C3          2.1442   -0.8472   -0.8292 C.3       1 <0>        -0.1425
      6 C4          2.5056   -1.9520   -1.8529 C.3       1 <0>        -0.1209
      7 C5          1.2456   -2.8402   -1.9116 C.3       1 <0>        -0.1313
      8 C6          0.0645   -1.9601   -1.4591 C.3       1 <0>         0.1661
      9 H2         -0.3975   -2.3853   -0.5681 H         1 <0>         0.1025
     10 N1         -0.9246   -1.8507   -2.5343 N.am      1 <0>        -0.7511
     11 C7         -1.9031   -2.7707   -2.6460 C.2       1 <0>         0.7152
     12 O2         -1.9650   -3.6915   -1.8544 O.2       1 <0>        -0.5649
     13 N2         -2.8130   -2.6700   -3.6351 N.am      1 <0>        -0.7167
     14 C8         -3.8767   -3.6701   -3.7565 C.3       1 <0>         0.1295
     15 C9         -3.2555   -5.0526   -3.9651 C.3       1 <0>        -0.1130
     16 C10        -2.4135   -5.0460   -5.2425 C.3       1 <0>        -0.1118
     17 C11        -3.3036   -4.7012   -6.4382 C.3       1 <0>        -0.1153
     18 C12        -3.9249   -3.3186   -6.2297 C.3       1 <0>        -0.1156
     19 C13        -4.7668   -3.3253   -4.9522 C.3       1 <0>        -0.1054
     20 C14        -4.7060   -3.6766   -2.4982 C.2       1 <0>         0.4994
     21 O3         -4.4338   -2.9164   -1.5847 O.co2     1 <0>        -0.6728
     22 O4         -5.6492   -4.4421   -2.3937 O.co2     1 <0>        -0.7052
     23 H3          1.0053    1.8021    0.0021 H         1 <0>         0.0373
     24 H4         -0.5445    1.7859   -0.8732 H         1 <0>         0.0402
     25 H5         -0.5275    1.7763    0.9067 H         1 <0>         0.0847
     26 H6          2.7455    0.0463   -0.9968 H         1 <0>         0.0667
     27 H7          2.2666   -1.2109    0.1910 H         1 <0>         0.0802
     28 H8          2.7098   -1.5146   -2.8301 H         1 <0>         0.0645
     29 H9          3.3628   -2.5285   -1.5052 H         1 <0>         0.0679
     30 H10         1.0808   -3.1875   -2.9315 H         1 <0>         0.0713
     31 H11         1.3573   -3.6916   -1.2402 H         1 <0>         0.0729
     32 H12        -0.8751   -1.1161   -3.1658 H         1 <0>         0.3827
     33 H13        -2.7636   -1.9354   -4.2666 H         1 <0>         0.3768
     34 H14        -2.6213   -5.2983   -3.1132 H         1 <0>         0.0774
     35 H15        -4.0469   -5.7967   -4.0554 H         1 <0>         0.0660
     36 H16        -1.6221   -4.3019   -5.1522 H         1 <0>         0.0538
     37 H17        -1.9709   -6.0309   -5.3911 H         1 <0>         0.0499
     38 H18        -2.7038   -4.6964   -7.3483 H         1 <0>         0.0508
     39 H19        -4.0950   -5.4452   -6.5285 H         1 <0>         0.0597
     40 H20        -3.1335   -2.5746   -6.1393 H         1 <0>         0.0540
     41 H21        -4.5590   -3.0730   -7.0815 H         1 <0>         0.0552
     42 H22        -5.5582   -4.0693   -5.0425 H         1 <0>         0.0797
     43 H23        -5.2094   -2.3403   -4.8036 H         1 <0>         0.0568
@<TRIPOS>BOND
     1    1    2 1
     2    1   23 1
     3    1   24 1
     4    1   25 1
     5    2    3 1
     6    3    4 1
     7    3    8 1
     8    3    5 1
     9    5    6 1
    10    5   26 1
    11    5   27 1
    12    6    7 1
    13    6   28 1
    14    6   29 1
    15    7    8 1
    16    7   30 1
    17    7   31 1
    18    8    9 1
    19    8   10 1
    20   10   11 am
    21   10   32 1
    22   11   12 2
    23   11   13 am
    24   13   14 1
    25   13   33 1
    26   14   19 1
    27   14   15 1
    28   14   20 1
    29   15   16 1
    30   15   34 1
    31   15   35 1
    32   16   17 1
    33   16   36 1
    34   16   37 1
    35   17   18 1
    36   17   38 1
    37   17   39 1
    38   18   19 1
    39   18   40 1
    40   18   41 1
    41   19   42 1
    42   19   43 1
    43   20   21 2
    44   20   22 1
@<TRIPOS>MOLECULE
ZINC36978717
   40    41     0     0     0
SMALL
USER_CHARGES

@<TRIPOS>ATOM
      1 C1         -0.0184    1.5028    0.0103 C.3       1 <0>        -0.0898
      2 C2          0.0021   -0.0041    0.0020 C.2       1 <0>         0.0921
      3 C3          0.0079   -0.7958   -1.0953 C.2       1 <0>        -0.2023
      4 C4          0.0284   -2.1267   -0.6656 C.2       1 <0>         0.1027
      5 N1          0.0347   -2.1338    0.6427 N.2       1 <0>        -0.3047
      6 N2          0.0237   -0.8054    1.0876 N.pl3     1 <0>        -0.4820
      7 H1          0.0286   -0.5133    2.0125 H         1 <0>         0.4329
      8 C5          0.0404   -3.3426   -1.5559 C.3       1 <0>        -0.0743
      9 C6         -0.0058   -0.3266   -2.5273 C.3       1 <0>        -0.0613
     10 C7          1.4103   -0.1500   -3.0116 C.2       1 <0>         0.5188
     11 O1          2.3392   -0.3823   -2.2673 O.2       1 <0>        -0.5118
     12 N3          1.6445    0.2661   -4.2720 N.am      1 <0>        -0.7077
     13 C8          3.0211    0.4378   -4.7428 C.3       1 <0>         0.1139
     14 C9          3.7320    1.4762   -3.8726 C.3       1 <0>        -0.1118
     15 C10         2.9912    2.8118   -3.9646 C.3       1 <0>        -0.1121
     16 C11         2.9773    3.2882   -5.4184 C.3       1 <0>        -0.1154
     17 C12         2.2665    2.2498   -6.2886 C.3       1 <0>        -0.1161
     18 C13         3.0072    0.9142   -6.1967 C.3       1 <0>        -0.1056
     19 C14         3.7507   -0.8777   -4.6522 C.2       1 <0>         0.5005
     20 O2          3.1742   -1.8669   -4.2332 O.co2     1 <0>        -0.6742
     21 O3          4.9175   -0.9527   -4.9980 O.co2     1 <0>        -0.7048
     22 H2          1.0042    1.8801    0.0026 H         1 <0>         0.0812
     23 H3         -0.5455    1.8639   -0.8728 H         1 <0>         0.0825
     24 H4         -0.5286    1.8543    0.9071 H         1 <0>         0.0659
     25 H5          1.0708   -3.6217   -1.7759 H         1 <0>         0.0867
     26 H6         -0.4595   -4.1685   -1.0497 H         1 <0>         0.0662
     27 H7         -0.4815   -3.1172   -2.4858 H         1 <0>         0.0747
     28 H8         -0.5122   -1.0664   -3.1473 H         1 <0>         0.0916
     29 H9         -0.5335    0.6249   -2.5928 H         1 <0>         0.0841
     30 H10         0.9016    0.4520   -4.8673 H         1 <0>         0.3807
     31 H11         3.7419    1.1368   -2.8369 H         1 <0>         0.0746
     32 H12         4.7562    1.6039   -4.2229 H         1 <0>         0.0648
     33 H13         1.9670    2.6841   -3.6143 H         1 <0>         0.0549
     34 H14         3.4977    3.5516   -3.3446 H         1 <0>         0.0495
     35 H15         2.4496    4.2397   -5.4840 H         1 <0>         0.0513
     36 H16         4.0016    3.4159   -5.7688 H         1 <0>         0.0590
     37 H17         1.2422    2.1221   -5.9383 H         1 <0>         0.0557
     38 H18         2.2566    2.5892   -7.3244 H         1 <0>         0.0551
     39 H19         4.0314    1.0419   -6.5470 H         1 <0>         0.0773
     40 H20         2.5008    0.1744   -6.8166 H         1 <0>         0.0572
@<TRIPOS>BOND
     1    1    2 1
     2    1   22 1
     3    1   23 1
     4    1   24 1
     5    2    6 1
     6    2    3 2
     7    3    4 1
     8    3    9 1
     9    4    5 2
    10    4    8 1
    11    5    6 1
    12    6    7 1
    13    8   25 1
    14    8   26 1
    15    8   27 1
    16    9   10 1
    17    9   28 1
    18    9   29 1
    19   10   11 2
    20   10   12 am
    21   12   13 1
    22   12   30 1
    23   13   18 1
    24   13   14 1
    25   13   19 1
    26   14   15 1
    27   14   31 1
    28   14   32 1
    29   15   16 1
    30   15   33 1
    31   15   34 1
    32   16   17 1
    33   16   35 1
    34   16   36 1
    35   17   18 1
    36   17   37 1
    37   17   38 1
    38   18   39 1
    39   18   40 1
    40   19   20 2
    41   19   21 1
@<TRIPOS>MOLECULE
ZINC40577237
   34    35     0     0     0
SMALL
USER_CHARGES

@<TRIPOS>ATOM
      1 C1         -0.0187    1.5258    0.0104 C.3       1 <0>        -0.1604
      2 C2          0.0021   -0.0041    0.0020 C.3       1 <0>         0.2472
      3 H1          0.5293   -0.3651    0.8851 H         1 <0>         0.1163
      4 C3         -1.4117   -0.5257    0.0127 C.2       1 <0>        -0.0094
      5 C4         -2.0757   -0.9765    1.0922 C.2       1 <0>        -0.2010
      6 C5         -3.3614   -1.3643    0.6498 C.2       1 <0>        -0.2113
      7 C6         -3.4061   -1.1272   -0.6735 C.2       1 <0>        -0.0458
      8 O1         -2.2244   -0.6139   -1.0529 O.3       1 <0>        -0.1747
      9 N1          0.6878   -0.4765   -1.2033 N.am      1 <0>        -0.7491
     10 C7          2.0310   -0.5870   -1.2149 C.2       1 <0>         0.7335
     11 O2          2.6736   -0.2945   -0.2251 O.2       1 <0>        -0.5729
     12 N2          2.6618   -1.0216   -2.3238 N.am      1 <0>        -0.5996
     13 C8          2.0096   -1.4023   -3.5899 C.3       1 <0>         0.0730
     14 C9          3.1033   -1.2161   -4.6711 C.3       1 <0>         0.0882
     15 H2          2.9100   -1.8508   -5.5358 H         1 <0>         0.0755
     16 C10         4.3739   -1.6819   -3.9122 C.3       1 <0>        -0.0983
     17 C11         4.1149   -1.1886   -2.4732 C.3       1 <0>         0.0884
     18 H3          4.6163   -0.2345   -2.3104 H         1 <0>         0.0688
     19 C12         4.6176   -2.2100   -1.4858 C.2       1 <0>         0.4947
     20 O3          3.8256   -2.8668   -0.8316 O.co2     1 <0>        -0.6775
     21 O4          5.8163   -2.3797   -1.3411 O.co2     1 <0>        -0.7021
     22 O5          3.2114    0.1549   -5.0594 O.3       1 <0>        -0.5531
     23 H4          1.0039    1.9031    0.0027 H         1 <0>         0.0745
     24 H5         -0.5459    1.8868   -0.8726 H         1 <0>         0.0570
     25 H6         -0.5289    1.8773    0.9072 H         1 <0>         0.0665
     26 H7         -1.6988   -1.0322    2.1028 H         1 <0>         0.1506
     27 H8         -4.1551   -1.7728    1.2577 H         1 <0>         0.1478
     28 H9         -4.2505   -1.3141   -1.3204 H         1 <0>         0.2013
     29 H10         0.1751   -0.7099   -1.9930 H         1 <0>         0.3920
     30 H11         1.6865   -2.4427   -3.5524 H         1 <0>         0.0707
     31 H12         1.1615   -0.7479   -3.7915 H         1 <0>         0.0651
     32 H13         4.4641   -2.7677   -3.9412 H         1 <0>         0.0867
     33 H14         5.2649   -1.2087   -4.3251 H         1 <0>         0.0859
     34 H15         2.4047    0.5177   -5.4502 H         1 <0>         0.3714
@<TRIPOS>BOND
     1    1    2 1
     2    1   23 1
     3    1   24 1
     4    1   25 1
     5    2    3 1
     6    2    4 1
     7    2    9 1
     8    4    8 1
     9    4    5 2
    10    5    6 1
    11    5   26 1
    12    6    7 2
    13    6   27 1
    14    7    8 1
    15    7   28 1
    16    9   10 am
    17    9   29 1
    18   10   11 2
    19   10   12 am
    20   12   17 1
    21   12   13 1
    22   13   14 1
    23   13   30 1
    24   13   31 1
    25   14   15 1
    26   14   16 1
    27   14   22 1
    28   16   17 1
    29   16   32 1
    30   16   33 1
    31   17   18 1
    32   17   19 1
    33   19   20 2
    34   19   21 1
    35   22   34 1
@<TRIPOS>MOLECULE
ZINC41718339
   36    37     0     0     0
SMALL
USER_CHARGES

@<TRIPOS>ATOM
      1 C1         -1.5872    1.5346   -4.3591 C.3       1 <0>        -0.1960
      2 C2         -1.5780    0.0278   -4.3812 C.2       1 <0>         0.3854
      3 O1         -2.2343   -0.5704   -5.2068 O.2       1 <0>        -0.4408
      4 C3         -0.7724   -0.7177   -3.4006 C.ar      1 <0>        -0.1525
      5 C4         -0.0186   -0.0306   -2.4432 C.ar      1 <0>        -0.1039
      6 C5          0.7350   -0.7326   -1.5262 C.ar      1 <0>        -0.1150
      7 C6          0.7491   -2.1154   -1.5486 C.ar      1 <0>        -0.1290
      8 C7          0.0042   -2.8086   -2.4953 C.ar      1 <0>         0.1712
      9 C8         -0.7617   -2.1149   -3.4185 C.ar      1 <0>        -0.0606
     10 N1          0.0234   -4.2081   -2.5127 N.am      1 <0>        -0.6926
     11 C9         -0.0809   -4.8690   -3.6827 C.2       1 <0>         0.7268
     12 O2         -0.0944   -4.2520   -4.7303 O.2       1 <0>        -0.5441
     13 N2         -0.1703   -6.2138   -3.6914 N.am      1 <0>        -0.6003
     14 C10        -0.1725   -7.0824   -2.5003 C.3       1 <0>         0.0704
     15 C11         0.3261   -8.4572   -3.0111 C.3       1 <0>         0.0894
     16 H1          1.4133   -8.4749   -3.0873 H         1 <0>         0.0728
     17 C12        -0.3309   -8.5248   -4.4151 C.3       1 <0>        -0.0953
     18 C13        -0.2881   -7.0569   -4.8900 C.3       1 <0>         0.0831
     19 H2          0.5753   -6.9037   -5.5374 H         1 <0>         0.0719
     20 C14        -1.5552   -6.7184   -5.6322 C.2       1 <0>         0.4943
     21 O3         -2.2856   -5.8336   -5.2196 O.co2     1 <0>        -0.6690
     22 O4         -1.8501   -7.3294   -6.6453 O.co2     1 <0>        -0.6992
     23 O5         -0.1432   -9.5158   -2.1737 O.3       1 <0>        -0.5536
     24 H3         -2.3887    1.8835   -3.7079 H         1 <0>         0.0948
     25 H4         -0.6304    1.8983   -3.9844 H         1 <0>         0.0847
     26 H5         -1.7491    1.9118   -5.3688 H         1 <0>         0.0855
     27 H6         -0.0267    1.0492   -2.4225 H         1 <0>         0.1299
     28 H7          1.3166   -0.2006   -0.7879 H         1 <0>         0.1284
     29 H8          1.3418   -2.6588   -0.8277 H         1 <0>         0.1257
     30 H9         -1.3450   -2.6521   -4.1518 H         1 <0>         0.1569
     31 H10         0.1117   -4.7023   -1.6827 H         1 <0>         0.4002
     32 H11         0.5065   -6.6900   -1.7433 H         1 <0>         0.0648
     33 H12        -1.1813   -7.1707   -2.0970 H         1 <0>         0.0736
     34 H13         0.2475   -9.1650   -5.0812 H         1 <0>         0.0840
     35 H14        -1.3613   -8.8729   -4.3424 H         1 <0>         0.0845
     36 H15         0.1643   -9.4591   -1.2586 H         1 <0>         0.3736
@<TRIPOS>BOND
     1    1    2 1
     2    1   24 1
     3    1   25 1
     4    1   26 1
     5    2    3 2
     6    2    4 1
     7    4    9 ar
     8    4    5 ar
     9    5    6 ar
    10    5   27 1
    11    6    7 ar
    12    6   28 1
    13    7    8 ar
    14    7   29 1
    15    8    9 ar
    16    8   10 1
    17    9   30 1
    18   10   11 am
    19   10   31 1
    20   11   12 2
    21   11   13 am
    22   13   18 1
    23   13   14 1
    24   14   15 1
    25   14   32 1
    26   14   33 1
    27   15   16 1
    28   15   17 1
    29   15   23 1
    30   17   18 1
    31   17   34 1
    32   17   35 1
    33   18   19 1
    34   18   20 1
    35   20   21 2
    36   20   22 1
    37   23   36 1
@<TRIPOS>MOLECULE
ZINC49229495
   37    38     0     0     0
SMALL
USER_CHARGES

@<TRIPOS>ATOM
      1 C1         -0.0184    1.5028    0.0103 C.3       1 <0>        -0.0714
      2 C2          0.0021   -0.0041    0.0020 C.2       1 <0>        -0.0201
      3 C3         -1.0783   -0.8055    0.0027 C.2       1 <0>        -0.2096
      4 C4         -0.6011   -2.1363   -0.0068 C.2       1 <0>        -0.1964
      5 C5          0.7423   -2.0686   -0.0126 C.2       1 <0>        -0.0114
      6 O1          1.1020   -0.7746   -0.0131 O.3       1 <0>        -0.1724
      7 C6          1.6840   -3.2450   -0.0226 C.3       1 <0>         0.2484
      8 H1          1.1555   -4.1305   -0.3760 H         1 <0>         0.1164
      9 C7          2.2048   -3.4935    1.3944 C.3       1 <0>        -0.1602
     10 N1          2.8111   -2.9608   -0.9143 N.am      1 <0>        -0.7491
     11 C8          3.4937   -3.9749   -1.4819 C.2       1 <0>         0.7335
     12 O2          3.1741   -5.1256   -1.2540 O.2       1 <0>        -0.5728
     13 N2          4.5306   -3.7134   -2.3022 N.am      1 <0>        -0.5995
     14 C9          5.0273   -2.3718   -2.6584 C.3       1 <0>         0.0731
     15 C10         6.5068   -2.5908   -3.0619 C.3       1 <0>         0.0882
     16 H2          6.8478   -1.8062   -3.7373 H         1 <0>         0.0754
     17 C11         6.4316   -3.9583   -3.7910 C.3       1 <0>        -0.0983
     18 C12         5.3579   -4.7189   -2.9849 C.3       1 <0>         0.0886
     19 H3          5.8340   -5.3681   -2.2501 H         1 <0>         0.0687
     20 C13         4.5036   -5.5370   -3.9187 C.2       1 <0>         0.4946
     21 O3          3.3479   -5.2114   -4.1305 O.co2     1 <0>        -0.6773
     22 O4          4.9682   -6.5245   -4.4624 O.co2     1 <0>        -0.7021
     23 O5          7.3460   -2.6702   -1.9080 O.3       1 <0>        -0.5530
     24 H4          1.0042    1.8801    0.0026 H         1 <0>         0.0742
     25 H5         -0.5455    1.8639   -0.8728 H         1 <0>         0.0836
     26 H6         -0.5286    1.8543    0.9071 H         1 <0>         0.0829
     27 H7         -2.1119   -0.4924    0.0097 H         1 <0>         0.1471
     28 H8         -1.2002   -3.0349   -0.0086 H         1 <0>         0.1506
     29 H9          2.7333   -2.6081    1.7478 H         1 <0>         0.0566
     30 H10         1.3662   -3.7050    2.0578 H         1 <0>         0.0665
     31 H11         2.8859   -4.3445    1.3872 H         1 <0>         0.0744
     32 H12         3.0662   -2.0428   -1.0961 H         1 <0>         0.3917
     33 H13         4.4609   -1.9681   -3.4977 H         1 <0>         0.0705
     34 H14         4.9632   -1.7032   -1.7999 H         1 <0>         0.0649
     35 H15         6.1197   -3.8263   -4.8271 H         1 <0>         0.0867
     36 H16         7.3891   -4.4765   -3.7385 H         1 <0>         0.0859
     37 H17         7.3472   -1.8689   -1.3667 H         1 <0>         0.3713
@<TRIPOS>BOND
     1    1    2 1
     2    1   24 1
     3    1   25 1
     4    1   26 1
     5    2    6 1
     6    2    3 2
     7    3    4 1
     8    3   27 1
     9    4    5 2
    10    4   28 1
    11    5    6 1
    12    5    7 1
    13    7    8 1
    14    7    9 1
    15    7   10 1
    16    9   29 1
    17    9   30 1
    18    9   31 1
    19   10   11 am
    20   10   32 1
    21   11   12 2
    22   11   13 am
    23   13   18 1
    24   13   14 1
    25   14   15 1
    26   14   33 1
    27   14   34 1
    28   15   16 1
    29   15   17 1
    30   15   23 1
    31   17   18 1
    32   17   35 1
    33   17   36 1
    34   18   19 1
    35   18   20 1
    36   20   21 2
    37   20   22 1
    38   23   37 1
@<TRIPOS>MOLECULE
ZINC62118702
   37    38     0     0     0
SMALL
USER_CHARGES

@<TRIPOS>ATOM
      1 C1          0.0248    1.8284    0.0835 C.3       1 <0>        -0.1348
      2 C2          1.4807    2.2807   -0.0509 C.3       1 <0>        -0.1015
      3 C3          2.0629    1.7487   -1.3625 C.3       1 <0>        -0.1186
      4 H1          1.4689    2.1157   -2.1995 H         1 <0>         0.0935
      5 C4          2.0319    0.2171   -1.3461 C.3       1 <0>         0.1418
      6 N1          0.6578   -0.2252   -1.0726 N.am      1 <0>        -0.6259
      7 C5         -0.0292    0.2978    0.1162 C.3       1 <0>         0.1100
      8 C6          0.0390   -1.0938   -1.8967 C.2       1 <0>         0.7087
      9 O1          0.6487   -1.5925   -2.8230 O.2       1 <0>        -0.5879
     10 N2         -1.2554   -1.4096   -1.6941 N.am      1 <0>        -0.8690
     11 C7          3.4860    2.2221   -1.5097 C.2       1 <0>         0.5300
     12 O2          4.1366    2.5028   -0.5254 O.2       1 <0>        -0.5444
     13 N3          4.0358    2.3334   -2.7352 N.am      1 <0>        -0.6131
     14 C8          3.3986    1.9368   -3.9994 C.3       1 <0>         0.0987
     15 C9          4.3866    2.2739   -5.1360 C.3       1 <0>        -0.1062
     16 C10         5.2920    3.3607   -4.4984 C.3       1 <0>        -0.1668
     17 H2          4.8241    4.3434   -4.5583 H         1 <0>         0.0747
     18 C11         5.3731    2.8791   -3.0306 C.3       1 <0>         0.1278
     19 C12         6.6546    3.3742   -5.1419 C.2       1 <0>         0.5047
     20 O3          6.7647    3.6196   -6.3311 O.co2     1 <0>        -0.6952
     21 O4          7.6469    3.1398   -4.4734 O.co2     1 <0>        -0.6913
     22 H3         -0.3962    2.2272    1.0065 H         1 <0>         0.0806
     23 H4         -0.5499    2.1947   -0.7671 H         1 <0>         0.0682
     24 H5          1.5242    3.3698   -0.0497 H         1 <0>         0.0712
     25 H6          2.0601    1.8933    0.7871 H         1 <0>         0.0785
     26 H7          2.3527   -0.1652   -2.3152 H         1 <0>         0.1003
     27 H8          2.6971   -0.1535   -0.5663 H         1 <0>         0.0751
     28 H9          0.4679   -0.0663    1.0153 H         1 <0>         0.0738
     29 H10        -1.0684   -0.0313    0.1121 H         1 <0>         0.0776
     30 H11        -1.7627   -0.9565   -1.0024 H         1 <0>         0.3950
     31 H12        -1.6799   -2.0899   -2.2399 H         1 <0>         0.4134
     32 H13         3.1940    0.8662   -3.9915 H         1 <0>         0.0672
     33 H14         2.4711    2.4925   -4.1375 H         1 <0>         0.0624
     34 H15         4.9722    1.3966   -5.4107 H         1 <0>         0.0733
     35 H16         3.8573    2.6722   -6.0016 H         1 <0>         0.0790
     36 H17         5.5963    3.7154   -2.3683 H         1 <0>         0.0696
     37 H18         6.1306    2.1018   -2.9302 H         1 <0>         0.0794
@<TRIPOS>BOND
     1    1    7 1
     2    1    2 1
     3    1   22 1
     4    1   23 1
     5    2    3 1
     6    2   24 1
     7    2   25 1
     8    3    4 1
     9    3    5 1
    10    3   11 1
    11    5    6 1
    12    5   26 1
    13    5   27 1
    14    6    7 1
    15    6    8 am
    16    7   28 1
    17    7   29 1
    18    8    9 2
    19    8   10 am
    20   10   30 1
    21   10   31 1
    22   11   12 2
    23   11   13 am
    24   13   18 1
    25   13   14 1
    26   14   15 1
    27   14   32 1
    28   14   33 1
    29   15   16 1
    30   15   34 1
    31   15   35 1
    32   16   17 1
    33   16   18 1
    34   16   19 1
    35   18   36 1
    36   18   37 1
    37   19   20 2
    38   19   21 1
@<TRIPOS>MOLECULE
ZINC37473769
   30    30     0     0     0
SMALL
USER_CHARGES

@<TRIPOS>ATOM
      1 C1         -0.0187    1.5258    0.0104 C.3       1 <0>        -0.1669
      2 C2          0.0021   -0.0041    0.0020 C.3       1 <0>         0.1461
      3 H1          0.5293   -0.3651    0.8851 H         1 <0>         0.1130
      4 C3         -1.4117   -0.5257    0.0127 C.2       1 <0>         0.5178
      5 O1         -1.8076   -1.2234   -0.8969 O.2       1 <0>        -0.5448
      6 N1         -2.2363   -0.2169    1.0331 N.am      1 <0>        -0.5438
      7 C4         -3.6107   -0.7239    1.0435 C.3       1 <0>         0.0429
      8 C5         -3.6493   -2.0560    1.7472 C.2       1 <0>         0.4850
      9 O2         -2.6239   -2.5372    2.1982 O.co2     1 <0>        -0.6810
     10 O3         -4.7060   -2.6525    1.8655 O.co2     1 <0>        -0.7019
     11 C6         -1.7581    0.6259    2.1319 C.3       1 <0>         0.0780
     12 C7         -2.6663    0.7759    3.3540 C.3       1 <0>        -0.1743
     13 C8         -2.4926    1.9446    2.3820 C.3       1 <0>        -0.2012
     14 N2          0.6878   -0.4765   -1.2033 N.am      1 <0>        -0.7241
     15 C9          2.0310   -0.5870   -1.2149 C.2       1 <0>         0.7094
     16 O4          2.6736   -0.2945   -0.2251 O.2       1 <0>        -0.5983
     17 N3          2.6618   -1.0216   -2.3238 N.am      1 <0>        -0.8679
     18 H2          1.0039    1.9031    0.0027 H         1 <0>         0.0690
     19 H3         -0.5459    1.8868   -0.8726 H         1 <0>         0.0591
     20 H4         -0.5289    1.8773    0.9072 H         1 <0>         0.0845
     21 H5         -4.2546   -0.0175    1.5673 H         1 <0>         0.0743
     22 H6         -3.9613   -0.8442    0.0185 H         1 <0>         0.0821
     23 H7         -0.6818    0.6090    2.3033 H         1 <0>         0.1282
     24 H8         -3.6195    0.2474    3.3405 H         1 <0>         0.1038
     25 H9         -2.1875    0.8574    4.3299 H         1 <0>         0.1010
     26 H10        -1.8996    2.7951    2.7184 H         1 <0>         0.1000
     27 H11        -3.3316    2.1851    1.7290 H         1 <0>         0.0947
     28 H12         0.1751   -0.7099   -1.9930 H         1 <0>         0.4049
     29 H13         2.1491   -1.2550   -3.1135 H         1 <0>         0.3972
     30 H14         3.6285   -1.1011   -2.3322 H         1 <0>         0.4131
@<TRIPOS>BOND
     1    1    2 1
     2    1   18 1
     3    1   19 1
     4    1   20 1
     5    2    3 1
     6    2    4 1
     7    2   14 1
     8    4    5 2
     9    4    6 am
    10    6    7 1
    11    6   11 1
    12    7    8 1
    13    7   21 1
    14    7   22 1
    15    8    9 2
    16    8   10 1
    17   11   13 1
    18   11   12 1
    19   11   23 1
    20   12   13 1
    21   12   24 1
    22   12   25 1
    23   13   26 1
    24   13   27 1
    25   14   15 am
    26   14   28 1
    27   15   16 2
    28   15   17 am
    29   17   29 1
    30   17   30 1
@<TRIPOS>MOLECULE
ZINC39783535
   24    25     0     0     0
SMALL
USER_CHARGES

@<TRIPOS>ATOM
      1 C1         -0.0187    1.5258    0.0104 C.3       1 <0>        -0.1492
      2 C2          0.0021   -0.0041    0.0020 C.3       1 <0>         0.2156
      3 H1         -1.0141   -0.3982   -0.0029 H         1 <0>         0.0964
      4 C3          0.7746   -0.5165   -1.1946 C.2       1 <0>        -0.2680
      5 C4          1.8196   -1.2235   -0.7120 C.2       1 <0>         0.1193
      6 N1          1.8303   -1.2396    0.6425 N.pl3     1 <0>        -0.5496
      7 N2          0.7474   -0.5155    1.1646 N.pl3     1 <0>        -0.3835
      8 C5          0.4442   -0.3220    2.4863 C.2       1 <0>         0.6641
      9 N3         -0.6170    0.3902    2.8092 N.2       1 <0>        -0.6283
     10 H2          2.0121   -1.3950    3.1777 H         1 <0>         0.4338
     11 C6         -0.9349    0.5935    4.0933 C.2       1 <0>         0.5060
     12 O1         -1.9195    1.2539    4.3870 O.2       1 <0>        -0.5024
     13 C7         -0.0920    0.0166    5.1438 C.2       1 <0>         0.0223
     14 N4          0.9538   -0.6851    4.7987 N.2       1 <0>        -0.1871
     15 N5          1.2386   -0.8716    3.4395 N.pl3     1 <0>        -0.5614
     16 C8          0.4640   -0.2981   -2.5495 C.2       1 <0>         0.5456
     17 O2          1.1774   -0.7729   -3.4261 O.co2     1 <0>        -0.7021
     18 O3         -0.5199    0.3671   -2.8533 O.co2     1 <0>        -0.6929
     19 H3          1.0039    1.9031    0.0027 H         1 <0>         0.0448
     20 H4         -0.5459    1.8868   -0.8726 H         1 <0>         0.0928
     21 H5         -0.5289    1.8773    0.9072 H         1 <0>         0.0699
     22 H6          2.5560   -1.7154   -1.3301 H         1 <0>         0.1872
     23 H7          2.4979   -1.6927    1.1809 H         1 <0>         0.4215
     24 H8         -0.3313    0.1694    6.1858 H         1 <0>         0.2051
@<TRIPOS>BOND
     1    1    2 1
     2    1   19 1
     3    1   20 1
     4    1   21 1
     5    2    3 1
     6    2    7 1
     7    2    4 1
     8    4    5 2
     9    4   16 1
    10    5    6 1
    11    5   22 1
    12    6    7 1
    13    6   23 1
    14    7    8 1
    15    8    9 2
    16    8   15 1
    17    9   11 1
    18   10   15 1
    19   11   12 2
    20   11   13 1
    21   13   14 2
    22   13   24 1
    23   14   15 1
    24   16   17 2
    25   16   18 1
@<TRIPOS>MOLECULE
ZINC41048263
   21    21     0     0     0
SMALL
USER_CHARGES

@<TRIPOS>ATOM
      1 C1         -0.0161    1.3392    0.0094 C.2       1 <0>         0.2815
      2 N1          1.2214    1.7652   -0.0001 N.2       1 <0>        -0.5733
      3 C2          2.0581    0.7230   -0.0137 C.2       1 <0>         0.4640
      4 N2          1.3539   -0.3840   -0.0129 N.2       1 <0>        -0.3412
      5 N3          0.0021   -0.0041    0.0020 N.pl3     1 <0>        -0.3710
      6 C3         -1.1595   -0.8967    0.0087 C.3       1 <0>         0.1450
      7 C4         -1.0729   -1.8427   -1.1611 C.2       1 <0>         0.4305
      8 O1         -0.1368   -1.7780   -1.9224 O.2       1 <0>        -0.4943
      9 O2         -2.0355   -2.7573   -1.3574 O.3       1 <0>        -0.3152
     10 C5         -1.8890   -3.6214   -2.4861 C.3       1 <0>         0.0037
     11 C6         -3.0554   -4.5739   -2.5443 C.2       1 <0>         0.5022
     12 O3         -3.9309   -4.5180   -1.6976 O.co2     1 <0>        -0.6720
     13 O4         -3.1235   -5.4005   -3.4380 O.co2     1 <0>        -0.6828
     14 N4          3.4520    0.7998   -0.0273 N.pl3     1 <0>        -0.8278
     15 H1         -0.8995    1.9604    0.0252 H         1 <0>         0.2221
     16 H2         -1.1738   -1.4675    0.9373 H         1 <0>         0.1303
     17 H3         -2.0722   -0.3059   -0.0686 H         1 <0>         0.1433
     18 H4         -1.8606   -3.0257   -3.3985 H         1 <0>         0.0651
     19 H5         -0.9621   -4.1873   -2.3926 H         1 <0>         0.0659
     20 H6          3.8901    1.6652   -0.0270 H         1 <0>         0.4114
     21 H7          3.9824   -0.0123   -0.0370 H         1 <0>         0.4125
@<TRIPOS>BOND
     1    1    5 1
     2    1    2 2
     3    1   15 1
     4    2    3 1
     5    3    4 2
     6    3   14 1
     7    4    5 1
     8    5    6 1
     9    6    7 1
    10    6   16 1
    11    6   17 1
    12    7    8 2
    13    7    9 1
    14    9   10 1
    15   10   11 1
    16   10   18 1
    17   10   19 1
    18   11   12 2
    19   11   13 1
    20   14   20 1
    21   14   21 1
@<TRIPOS>MOLECULE
ZINC50918312
   25    25     0     0     0
SMALL
USER_CHARGES

@<TRIPOS>ATOM
      1 C1         -0.0157    1.3041    0.0092 C.2       1 <0>         0.0504
      2 C2          1.3095    1.7634   -0.0010 C.2       1 <0>         0.0328
      3 C3          2.1255    0.6785   -0.0146 C.2       1 <0>        -0.0109
      4 N1          1.3372   -0.4274   -0.0130 N.pl3     1 <0>        -0.3764
      5 N2          0.0021   -0.0041    0.0020 N.2       1 <0>        -0.2621
      6 C4          1.8011   -1.8169   -0.0256 C.3       1 <0>         0.1288
      7 C5          1.1989   -2.5582    1.1401 C.2       1 <0>         0.4979
      8 O1          0.4554   -1.9824    1.9061 O.2       1 <0>        -0.5045
      9 N3          1.4865   -3.8609    1.3315 N.am      1 <0>        -0.8576
     10 N4          1.7203    3.1097    0.0023 N.am      1 <0>        -0.6651
     11 C6          0.8006    4.0948    0.0169 C.2       1 <0>         0.5102
     12 O2         -0.3811    3.8212    0.0272 O.2       1 <0>        -0.4694
     13 C7          1.2404    5.5362    0.0204 C.3       1 <0>        -0.2050
     14 C8          0.0281    6.4313    0.0374 C.2       1 <0>         0.4941
     15 O3         -1.0894    5.9439    0.0459 O.co2     1 <0>        -0.6538
     16 O4          0.1649    7.6428    0.0427 O.co2     1 <0>        -0.7063
     17 H1         -0.8997    1.9243    0.0250 H         1 <0>         0.2093
     18 H2          3.2054    0.6924   -0.0251 H         1 <0>         0.1726
     19 H3          1.4948   -2.2938   -0.9567 H         1 <0>         0.1109
     20 H4          2.8880   -1.8378    0.0529 H         1 <0>         0.1219
     21 H5          2.0811   -4.3214    0.7189 H         1 <0>         0.4005
     22 H6          1.0988   -4.3380    2.0819 H         1 <0>         0.4044
     23 H7          2.6653    3.3285   -0.0059 H         1 <0>         0.4017
     24 H8          1.8468    5.7289    0.9055 H         1 <0>         0.0878
     25 H9          1.8290    5.7387   -0.8743 H         1 <0>         0.0878
@<TRIPOS>BOND
     1    1    5 2
     2    1    2 1
     3    1   17 1
     4    2    3 2
     5    2   10 1
     6    3    4 1
     7    3   18 1
     8    4    5 1
     9    4    6 1
    10    6    7 1
    11    6   19 1
    12    6   20 1
    13    7    8 2
    14    7    9 am
    15    9   21 1
    16    9   22 1
    17   10   11 am
    18   10   23 1
    19   11   12 2
    20   11   13 1
    21   13   14 1
    22   13   24 1
    23   13   25 1
    24   14   15 2
    25   14   16 1
@<TRIPOS>MOLECULE
ZINC62135958
   26    27     0     0     0
SMALL
USER_CHARGES

@<TRIPOS>ATOM
      1 C1         -0.0190    1.5473    0.0105 C.3       1 <0>        -0.1145
      2 C2          1.4802    1.9134   -0.0018 C.3       1 <0>         0.1078
      3 N1          2.2175    0.7513    0.5153 N.am      1 <0>        -0.5953
      4 C3          1.2500   -0.3030    0.8698 C.3       1 <0>         0.1296
      5 C4          0.0021   -0.0041    0.0020 C.3       1 <0>        -0.1667
      6 H1          0.1293   -0.3875   -1.0104 H         1 <0>         0.0750
      7 C5         -1.2443   -0.5647    0.6370 C.2       1 <0>         0.5049
      8 O1         -1.7877   -1.5431    0.1534 O.co2     1 <0>        -0.6947
      9 O2         -1.7093   -0.0398    1.6344 O.co2     1 <0>        -0.6901
     10 C6          3.5564    0.6640    0.6432 C.2       1 <0>         0.6134
     11 O3          4.0599   -0.3507    1.0844 O.2       1 <0>        -0.5149
     12 C7          4.4126    1.8021    0.2469 C.2       1 <0>         0.2333
     13 N2          5.7535    1.8346    0.3211 N.2       1 <0>        -0.5391
     14 C8          6.1918    2.9937   -0.1112 C.2       1 <0>         0.5314
     15 N3          5.1226    3.7380   -0.4765 N.pl3     1 <0>        -0.5108
     16 H2          5.1381    4.6396   -0.8339 H         1 <0>         0.4382
     17 N4          3.9866    2.9468   -0.2415 N.2       1 <0>        -0.2757
     18 N5          7.5161    3.3862   -0.1807 N.pl3     1 <0>        -0.8241
     19 H3         -0.4999    1.9215    0.9143 H         1 <0>         0.0882
     20 H4         -0.5170    1.9312   -0.8798 H         1 <0>         0.0723
     21 H5          1.8000    2.1320   -1.0206 H         1 <0>         0.0688
     22 H6          1.6558    2.7784    0.6378 H         1 <0>         0.0699
     23 H7          1.6541   -1.2858    0.6274 H         1 <0>         0.0765
     24 H8          0.9981   -0.2461    1.9288 H         1 <0>         0.0779
     25 H9          8.2173    2.7802    0.1058 H         1 <0>         0.4260
     26 H10         7.7438    4.2675   -0.5159 H         1 <0>         0.4125
@<TRIPOS>BOND
     1    1    5 1
     2    1    2 1
     3    1   19 1
     4    1   20 1
     5    2    3 1
     6    2   21 1
     7    2   22 1
     8    3    4 1
     9    3   10 am
    10    4    5 1
    11    4   23 1
    12    4   24 1
    13    5    6 1
    14    5    7 1
    15    7    8 2
    16    7    9 1
    17   10   11 2
    18   10   12 1
    19   12   17 2
    20   12   13 1
    21   13   14 2
    22   14   15 1
    23   14   18 1
    24   15   16 1
    25   15   17 1
    26   18   25 1
    27   18   26 1
@<TRIPOS>MOLECULE
ZINC22060434
   42    44     0     0     0
SMALL
USER_CHARGES
(4R,5R,6S)-4,5-dihydroxy-6-[(3R,5R)-1-methyl-2-oxo-5-(3-pyridyl)pyrrolidin-3-yl]oxy-5,6-dihydro-4H-pyran-2-carboxylic acid
@<TRIPOS>ATOM
      1 C1          4.3298    0.7761   -2.1929 C.3       1 <0>         0.0959
      2 N1          4.6494    1.3240   -0.8723 N.am      1 <0>        -0.6152
      3 C2          3.6964    2.0487   -0.0236 C.3       1 <0>         0.1763
      4 H1          3.5276    3.0574   -0.4286 H         1 <0>         0.0995
      5 C3          4.3150    2.0432    1.3919 C.3       1 <0>        -0.1096
      6 C4          5.8217    1.8961    1.0769 C.3       1 <0>         0.0553
      7 H2          6.4026    2.8292    1.1203 H         1 <0>         0.1250
      8 C5          5.8536    1.2271   -0.2795 C.2       1 <0>         0.5073
      9 O1          6.8237    0.6832   -0.7632 O.2       1 <0>        -0.5144
     10 O2          6.4592    1.0729    2.0557 O.3       1 <0>        -0.3357
     11 C6          7.8332    1.3950    2.2802 C.3       1 <0>         0.2580
     12 H3          8.2982    1.5132    1.2903 H         1 <0>         0.0892
     13 C7          8.4835    0.3098    3.1491 C.3       1 <0>         0.1143
     14 H4          8.3368   -0.6977    2.7327 H         1 <0>         0.0728
     15 C8          9.9682    0.6518    3.3125 C.3       1 <0>         0.1359
     16 H5         10.5420    0.4301    2.4006 H         1 <0>         0.0595
     17 C9         10.1104    2.1041    3.6792 C.2       1 <0>        -0.3087
     18 C10         9.1330    2.9793    3.4954 C.2       1 <0>         0.1037
     19 O3          7.9288    2.6427    2.9729 O.3       1 <0>        -0.3116
     20 C11         9.3661    4.3835    3.8763 C.2       1 <0>         0.5013
     21 O4         10.4359    4.7157    4.3471 O.co2     1 <0>        -0.6136
     22 O5          8.3927    5.2994    3.7026 O.co2     1 <0>        -0.7336
     23 O6         10.5326   -0.1579    4.3458 O.3       1 <0>        -0.5937
     24 O7          7.8520    0.2759    4.4305 O.3       1 <0>        -0.5662
     25 C12         2.3651    1.3426   -0.0138 C.ar      1 <0>        -0.1536
     26 C13         1.1846    2.0699    0.0019 C.ar      1 <0>        -0.0606
     27 C14        -0.0167    1.3780    0.0096 C.ar      1 <0>        -0.1718
     28 C15         0.0021   -0.0041    0.0020 C.ar      1 <0>         0.0985
     29 N2          1.1441   -0.6630   -0.0120 N.ar      1 <0>        -0.4836
     30 C16         2.3054   -0.0380   -0.0197 C.ar      1 <0>         0.1194
     31 H6          3.2798    0.9954   -2.4365 H         1 <0>         0.0752
     32 H7          4.4848   -0.3129   -2.1853 H         1 <0>         0.0644
     33 H8          4.9849    1.2345   -2.9484 H         1 <0>         0.0656
     34 H9          4.0696    2.9859    1.9029 H         1 <0>         0.1091
     35 H10         3.9083    1.1980    1.9665 H         1 <0>         0.1001
     36 H11        11.0667    2.4308    4.1136 H         1 <0>         0.1388
     37 H12        11.5958   -0.0532    4.6077 H         1 <0>         0.4124
     38 H13         8.1885   -0.4445    5.1906 H         1 <0>         0.4087
     39 H14         1.2007    3.1498    0.0075 H         1 <0>         0.1395
     40 H15        -0.9553    1.9121    0.0170 H         1 <0>         0.1373
     41 H16        -0.9294   -0.5505    0.0080 H         1 <0>         0.1558
     42 H17         3.2203   -0.6118   -0.0312 H         1 <0>         0.1531
@<TRIPOS>BOND
     1    1    2 1
     2    1   31 1
     3    1   32 1
     4    1   33 1
     5    2    8 am
     6    2    3 1
     7    3    4 1
     8    3    5 1
     9    3   25 1
    10    5    6 1
    11    5   34 1
    12    5   35 1
    13    6    7 1
    14    6    8 1
    15    6   10 1
    16    8    9 2
    17   10   11 1
    18   11   12 1
    19   11   19 1
    20   11   13 1
    21   13   14 1
    22   13   15 1
    23   13   24 1
    24   15   16 1
    25   15   17 1
    26   15   23 1
    27   17   18 2
    28   17   36 1
    29   18   19 1
    30   18   20 1
    31   20   21 2
    32   20   22 1
    33   23   37 1
    34   24   38 1
    35   25   30 ar
    36   25   26 ar
    37   26   27 ar
    38   26   39 1
    39   27   28 ar
    40   27   40 1
    41   28   29 ar
    42   28   41 1
    43   29   30 ar
    44   30   42 1
@<TRIPOS>MOLECULE
ZINC37431693
   30    30     0     0     0
SMALL
USER_CHARGES

@<TRIPOS>ATOM
      1 C1         -0.0187    1.5258    0.0104 C.3       1 <0>        -0.1826
      2 C2          0.0021   -0.0041    0.0020 C.3       1 <0>         0.1076
      3 H1         -1.0205   -0.3814    0.0098 H         1 <0>         0.0728
      4 C3          0.7421   -0.5109    1.2415 C.3       1 <0>         0.0795
      5 H2          0.1838   -0.2350    2.1361 H         1 <0>         0.0983
      6 C4          0.8700   -2.0108    1.1719 C.2       1 <0>         0.5022
      7 O1          1.9609   -2.5215    0.9829 O.co2     1 <0>        -0.6795
      8 O2         -0.1174   -2.7137    1.3045 O.co2     1 <0>        -0.6964
      9 N1          2.0766    0.0911    1.2937 N.am      1 <0>        -0.6722
     10 C5          2.7121    0.2198    2.4753 C.2       1 <0>         0.5546
     11 O3          2.1778   -0.1638    3.4979 O.2       1 <0>        -0.5215
     12 C6          4.0564    0.8262    2.5279 C.ar      1 <0>        -0.1617
     13 C7          4.6708    1.2733    1.3552 C.ar      1 <0>         0.0321
     14 C8          5.9255    1.8390    1.4100 C.ar      1 <0>        -0.1104
     15 C9          6.5813    1.9658    2.6262 C.ar      1 <0>         0.2173
     16 C10         5.9799    1.5249    3.7933 C.ar      1 <0>        -0.2038
     17 C11         4.7188    0.9612    3.7528 C.ar      1 <0>         0.2414
     18 F1          4.1295    0.5367    4.8920 F         1 <0>        -0.0825
     19 F2          7.8119    2.5213    2.6721 F         1 <0>        -0.0916
     20 N2          6.5763    2.3126    0.1678 N.pl3     1 <0>         0.0399
     21 O4          6.0066    2.2026   -0.8929 O.2       1 <0>        -0.1442
     22 O5          7.6775    2.8094    0.2138 O.3       1 <0>        -0.1466
     23 O6          0.6709   -0.4649   -1.1737 O.3       1 <0>        -0.5518
     24 H3          1.0039    1.9031    0.0027 H         1 <0>         0.0584
     25 H4         -0.5459    1.8868   -0.8726 H         1 <0>         0.0569
     26 H5         -0.5289    1.8773    0.9072 H         1 <0>         0.0644
     27 H6          2.5029    0.3971    0.4779 H         1 <0>         0.3961
     28 H7          4.1628    1.1751    0.4072 H         1 <0>         0.1761
     29 H8          6.4954    1.6259    4.7370 H         1 <0>         0.1792
     30 H9          0.2557   -0.1806   -1.9994 H         1 <0>         0.3680
@<TRIPOS>BOND
     1    1    2 1
     2    1   24 1
     3    1   25 1
     4    1   26 1
     5    2    3 1
     6    2    4 1
     7    2   23 1
     8    4    5 1
     9    4    6 1
    10    4    9 1
    11    6    7 2
    12    6    8 1
    13    9   10 am
    14    9   27 1
    15   10   11 2
    16   10   12 1
    17   12   17 ar
    18   12   13 ar
    19   13   14 ar
    20   13   28 1
    21   14   15 ar
    22   14   20 1
    23   15   16 ar
    24   15   19 1
    25   16   17 ar
    26   16   29 1
    27   17   18 1
    28   20   21 2
    29   20   22 1
    30   23   30 1
@<TRIPOS>MOLECULE
ZINC40591444
   36    36     0     0     0
SMALL
USER_CHARGES

@<TRIPOS>ATOM
      1 C1         -0.0178    1.4608    0.0101 C.3       1 <0>         0.0651
      2 N1          0.0021   -0.0041    0.0020 N.am      1 <0>        -0.6221
      3 C2          0.0241   -0.7433    1.2666 C.3       1 <0>         0.1584
      4 H1          0.0493   -1.8132    1.0599 H         1 <0>         0.1273
      5 C3          1.2763   -0.3484    2.0670 C.3       1 <0>        -0.1426
      6 C4          1.1181   -0.8949    3.5147 C.3       1 <0>        -0.5699
      7 S1         -0.6629   -0.5338    3.8186 S.o2      1 <0>         2.3741
      8 O1         -1.2665   -1.6660    4.4294 O.2       1 <0>        -0.9350
      9 O2         -0.7772    0.7395    4.4390 O.2       1 <0>        -0.9343
     10 C5         -1.2486   -0.4071    2.0806 C.3       1 <0>        -0.5997
     11 C6          0.0001   -0.6716   -1.1688 C.2       1 <0>         0.7108
     12 O3          0.0166   -1.8873   -1.1755 O.2       1 <0>        -0.5869
     13 N2         -0.0202    0.0085   -2.3322 N.am      1 <0>        -0.7269
     14 C7         -0.0224   -0.7171   -3.6049 C.3       1 <0>         0.1174
     15 C8         -0.0466    0.2682   -4.7449 C.2       1 <0>         0.4975
     16 O4         -0.0607    1.4593   -4.5167 O.2       1 <0>        -0.5616
     17 N3         -0.0526   -0.1742   -6.0180 N.am      1 <0>        -0.6895
     18 C9         -0.0762    0.7837   -7.1262 C.3       1 <0>         0.0500
     19 C10        -0.0784    0.0373   -8.4354 C.2       1 <0>         0.4900
     20 O5         -0.0619   -1.1818   -8.4421 O.co2     1 <0>        -0.6902
     21 O6         -0.0968    0.6525   -9.4878 O.co2     1 <0>        -0.6865
     22 H2          1.0048    1.8381    0.0023 H         1 <0>         0.0644
     23 H3         -0.5450    1.8219   -0.8730 H         1 <0>         0.0781
     24 H4         -0.5280    1.8123    0.9069 H         1 <0>         0.0780
     25 H5          2.1617   -0.7838    1.6039 H         1 <0>         0.1067
     26 H6          1.3703    0.7372    2.0916 H         1 <0>         0.0927
     27 H7          1.3156   -1.9661    3.5554 H         1 <0>         0.1430
     28 H8          1.7551   -0.3519    4.2128 H         1 <0>         0.1441
     29 H9         -1.5920    0.6038    1.8610 H         1 <0>         0.1446
     30 H10        -2.0360   -1.1350    1.8849 H         1 <0>         0.1481
     31 H11        -0.0334    0.9784   -2.3269 H         1 <0>         0.4091
     32 H12         0.8754   -1.3313   -3.6745 H         1 <0>         0.0989
     33 H13        -0.9043   -1.3555   -3.6577 H         1 <0>         0.0987
     34 H14        -0.0414   -1.1268   -6.2005 H         1 <0>         0.4119
     35 H15        -0.9740    1.3979   -7.0566 H         1 <0>         0.0682
     36 H16         0.8057    1.4221   -7.0734 H         1 <0>         0.0682
@<TRIPOS>BOND
     1    1    2 1
     2    1   22 1
     3    1   23 1
     4    1   24 1
     5    2    3 1
     6    2   11 am
     7    3    4 1
     8    3   10 1
     9    3    5 1
    10    5    6 1
    11    5   25 1
    12    5   26 1
    13    6    7 1
    14    6   27 1
    15    6   28 1
    16    7    8 2
    17    7    9 2
    18    7   10 1
    19   10   29 1
    20   10   30 1
    21   11   12 2
    22   11   13 am
    23   13   14 1
    24   13   31 1
    25   14   15 1
    26   14   32 1
    27   14   33 1
    28   15   16 2
    29   15   17 am
    30   17   18 1
    31   17   34 1
    32   18   19 1
    33   18   35 1
    34   18   36 1
    35   19   20 2
    36   19   21 1
@<TRIPOS>MOLECULE
ZINC45092324
   35    35     0     0     0
SMALL
USER_CHARGES

@<TRIPOS>ATOM
      1 C1         -0.0169    1.3923    0.0097 C.ar      1 <0>        -0.0155
      2 C2          1.2094    2.0695    0.0016 C.ar      1 <0>        -0.0831
      3 C3          2.3944    1.3251   -0.0137 C.ar      1 <0>         0.1200
      4 N1          2.3644    0.0084   -0.0209 N.ar      1 <0>        -0.4812
      5 C4          1.2324   -0.6658   -0.0137 C.ar      1 <0>         0.1136
      6 C5          0.0021   -0.0041    0.0020 C.ar      1 <0>        -0.1911
      7 C6         -1.2619   -0.7712    0.0105 C.2       1 <0>         0.5707
      8 O1         -2.3276   -0.1867    0.0242 O.2       1 <0>        -0.5307
      9 N2         -1.2325   -2.1187    0.0029 N.am      1 <0>        -0.7319
     10 C7         -2.4848   -2.8788    0.0113 C.3       1 <0>         0.1285
     11 C8         -2.1725   -4.3765    0.0002 C.3       1 <0>        -0.1268
     12 C9         -3.4804   -5.1703    0.0089 C.3       1 <0>        -0.6235
     13 S1         -3.1101   -6.9461   -0.0043 S.o2      1 <0>         2.6186
     14 O2         -2.5277   -7.3154   -1.2468 O.2       1 <0>        -0.9601
     15 O3         -2.5032   -7.3286    1.2223 O.2       1 <0>        -0.9582
     16 N3         -4.5898   -7.6895    0.0064 N.pl3     1 <0>        -1.2504
     17 C10         1.2509    3.5402    0.0086 C.2       1 <0>        -0.1226
     18 C11         2.4396    4.1826    0.0007 C.2       1 <0>        -0.1475
     19 C12         2.4795    5.5979    0.0075 C.2       1 <0>         0.4985
     20 O4          1.4364    6.2400    0.0205 O.co2     1 <0>        -0.6905
     21 O5          3.5571    6.1803    0.0003 O.co2     1 <0>        -0.6940
     22 H1         -0.9506    1.9348    0.0259 H         1 <0>         0.1497
     23 H2          3.3455    1.8368   -0.0200 H         1 <0>         0.1672
     24 H3          1.2560   -1.7455   -0.0201 H         1 <0>         0.1527
     25 H4         -0.3821   -2.5851   -0.0080 H         1 <0>         0.4024
     26 H5         -3.0532   -2.6328    0.9083 H         1 <0>         0.0755
     27 H6         -3.0708   -2.6232   -0.8716 H         1 <0>         0.0756
     28 H7         -1.6042   -4.6224   -0.8969 H         1 <0>         0.0908
     29 H8         -1.5865   -4.6320    0.8830 H         1 <0>         0.0906
     30 H9         -4.0487   -4.9243    0.9059 H         1 <0>         0.1382
     31 H10        -4.0664   -4.9148   -0.8740 H         1 <0>         0.1408
     32 H11        -4.7008   -8.5550   -0.4172 H         1 <0>         0.4215
     33 H12        -5.3455   -7.2594    0.4362 H         1 <0>         0.4142
     34 H13         0.3312    4.1063    0.0201 H         1 <0>         0.1352
     35 H14         3.3593    3.6165   -0.0107 H         1 <0>         0.1029
@<TRIPOS>BOND
     1    1    6 ar
     2    1    2 ar
     3    1   22 1
     4    2    3 ar
     5    2   17 1
     6    3    4 ar
     7    3   23 1
     8    4    5 ar
     9    5    6 ar
    10    5   24 1
    11    6    7 1
    12    7    8 2
    13    7    9 am
    14    9   10 1
    15    9   25 1
    16   10   11 1
    17   10   26 1
    18   10   27 1
    19   11   12 1
    20   11   28 1
    21   11   29 1
    22   12   13 1
    23   12   30 1
    24   12   31 1
    25   13   14 2
    26   13   15 2
    27   13   16 1
    28   16   32 1
    29   16   33 1
    30   17   18 2
    31   17   34 1
    32   18   19 1
    33   18   35 1
    34   19   20 2
    35   19   21 1
@<TRIPOS>MOLECULE
ZINC61948652
   35    35     0     0     0
SMALL
USER_CHARGES

@<TRIPOS>ATOM
      1 C1          0.3384    1.2615   -0.0841 C.3       1 <0>         0.0202
      2 C2          1.8566    1.4603   -0.1433 C.3       1 <0>         0.1407
      3 N1          2.4667    0.7386    0.9838 N.am      1 <0>        -0.6384
      4 C3          2.1052   -0.6730    1.1836 C.3       1 <0>         0.1209
      5 C4          0.5771   -0.7879    1.1905 C.3       1 <0>         0.0425
      6 N2          0.0376   -0.1754   -0.0309 N.3       1 <0>        -0.5312
      7 C5         -1.4070   -0.4156   -0.1464 C.3       1 <0>         0.0079
      8 C6         -1.8358   -0.2534   -1.6061 C.3       1 <0>         0.4586
      9 F1         -1.0471   -1.0756   -2.4179 F         1 <0>        -0.1726
     10 F2         -3.1801   -0.6169   -1.7403 F         1 <0>        -0.1864
     11 F3         -1.6724    1.0805   -1.9947 F         1 <0>        -0.1823
     12 C7          3.3342    1.3543    1.8112 C.2       1 <0>         0.7069
     13 O1          3.6749    2.5006    1.5913 O.2       1 <0>        -0.5893
     14 N3          3.8243    0.6993    2.8824 N.am      1 <0>        -0.7060
     15 C8          4.8328    1.3369    3.7325 C.3       1 <0>         0.0885
     16 H1          5.4914    1.9500    3.1174 H         1 <0>         0.0914
     17 C9          5.6551    0.2601    4.4433 C.3       1 <0>         0.0861
     18 O2          4.8128   -0.4692    5.3381 O.3       1 <0>        -0.5523
     19 C10         4.1498    2.2055    4.7571 C.2       1 <0>         0.5003
     20 O3          3.0376    1.9118    5.1613 O.co2     1 <0>        -0.6800
     21 O4          4.7093    3.2020    5.1819 O.co2     1 <0>        -0.7029
     22 H2         -0.0579    1.7492    0.8065 H         1 <0>         0.0497
     23 H3         -0.1203    1.6964   -0.9720 H         1 <0>         0.1003
     24 H4          2.2414    1.0643   -1.0830 H         1 <0>         0.0696
     25 H5          2.0900    2.5223   -0.0673 H         1 <0>         0.0992
     26 H6          2.5139   -1.2742    0.3713 H         1 <0>         0.0748
     27 H7          2.5029   -1.0215    2.1367 H         1 <0>         0.0862
     28 H8          0.2915   -1.8392    1.2269 H         1 <0>         0.0906
     29 H9          0.1775   -0.2716    2.0634 H         1 <0>         0.0520
     30 H10        -1.6351   -1.4273    0.1891 H         1 <0>         0.1189
     31 H11        -1.9453    0.3024    0.4723 H         1 <0>         0.0850
     32 H12         3.5091   -0.1941    3.0905 H         1 <0>         0.3913
     33 H13         6.0771   -0.4215    3.7048 H         1 <0>         0.0379
     34 H14         6.4614    0.7309    5.0058 H         1 <0>         0.0574
     35 H15         5.2686   -1.1700    5.8242 H         1 <0>         0.3643
@<TRIPOS>BOND
     1    1    6 1
     2    1    2 1
     3    1   22 1
     4    1   23 1
     5    2    3 1
     6    2   24 1
     7    2   25 1
     8    3    4 1
     9    3   12 am
    10    4    5 1
    11    4   26 1
    12    4   27 1
    13    5    6 1
    14    5   28 1
    15    5   29 1
    16    6    7 1
    17    7    8 1
    18    7   30 1
    19    7   31 1
    20    8    9 1
    21    8   10 1
    22    8   11 1
    23   12   13 2
    24   12   14 am
    25   14   15 1
    26   14   32 1
    27   15   16 1
    28   15   17 1
    29   15   19 1
    30   17   18 1
    31   17   33 1
    32   17   34 1
    33   18   35 1
    34   19   20 2
    35   19   21 1
@<TRIPOS>MOLECULE
ZINC33775582
   33    33     0     0     0
SMALL
USER_CHARGES
[(2S,3S,4S,5R,6S)-5-acetamido-3,4,6-trihydroxy-tetrahydropyran-2-yl]methyl hydrogen sulfate
@<TRIPOS>ATOM
      1 C1         -1.8941    5.1822    1.8318 C.3       1 <0>        -0.1664
      2 C2         -1.8237    3.6770    1.8499 C.2       1 <0>         0.5201
      3 O1         -2.6915    3.0360    2.4039 O.2       1 <0>        -0.5574
      4 N1         -0.7964    3.0431    1.2505 N.am      1 <0>        -0.6948
      5 C3         -0.7280    1.5798    1.2682 C.3       1 <0>         0.1465
      6 H1         -1.7642    1.2107    1.2739 H         1 <0>         0.1037
      7 C4          0.0224    1.1175    2.5210 C.3       1 <0>         0.1137
      8 H2         -0.0068    0.0232    2.6288 H         1 <0>         0.0743
      9 C5          1.4615    1.6388    2.4623 C.3       1 <0>         0.0627
     10 H3          2.0354    1.3368    3.3508 H         1 <0>         0.0717
     11 C6          2.1230    1.1442    1.1733 C.3       1 <0>         0.0742
     12 H4          2.1288    0.0454    1.1229 H         1 <0>         0.0796
     13 O2          1.3583    1.5827    0.0485 O.3       1 <0>        -0.3907
     14 C7          0.0180    1.0875    0.0253 C.3       1 <0>         0.2747
     15 H5          0.0697   -0.0091   -0.0442 H         1 <0>         0.0603
     16 O3         -0.6452    1.5622   -1.1481 O.3       1 <0>        -0.5685
     17 C8          3.5413    1.7101    1.0779 C.3       1 <0>         0.0939
     18 O4          4.1986    1.1579   -0.0644 O.3       1 <0>        -0.7740
     19 S1          5.6244    1.6541   -0.2582 S.o2      1 <0>         2.7760
     20 O5          6.0501    1.1806   -1.5286 O.2       1 <0>        -1.0595
     21 O6          5.6233    3.0345    0.0790 O.2       1 <0>        -1.0907
     22 O7          6.4897    0.9535    0.7795 O.3       1 <0>        -1.1069
     23 O8          1.4541    3.0677    2.4774 O.3       1 <0>        -0.5713
     24 O9         -0.6262    1.6345    3.6847 O.3       1 <0>        -0.5621
     25 H6         -1.0264    5.5833    1.2876 H         1 <0>         0.0734
     26 H7         -1.8870    5.5620    2.8641 H         1 <0>         0.0881
     27 H8         -2.8202    5.4999    1.3305 H         1 <0>         0.0851
     28 H9         -0.0093    3.6245    0.7480 H         1 <0>         0.4279
     29 H10        -0.2515    1.3079   -2.1433 H         1 <0>         0.4222
     30 H11         3.4935    2.8047    0.9799 H         1 <0>         0.0954
     31 H12         4.1028    1.4475    1.9866 H         1 <0>         0.0907
     32 H13         2.4029    3.6230    2.4409 H         1 <0>         0.4075
     33 H14        -0.2272    1.4061    4.6840 H         1 <0>         0.4004
@<TRIPOS>BOND
     1    1    2 1
     2    1   25 1
     3    1   26 1
     4    1   27 1
     5    2    3 2
     6    2    4 am
     7    4    5 1
     8    4   28 1
     9    5    6 1
    10    5   14 1
    11    5    7 1
    12    7    8 1
    13    7    9 1
    14    7   24 1
    15    9   10 1
    16    9   11 1
    17    9   23 1
    18   11   12 1
    19   11   13 1
    20   11   17 1
    21   13   14 1
    22   14   15 1
    23   14   16 1
    24   16   29 1
    25   17   18 1
    26   17   30 1
    27   17   31 1
    28   18   19 1
    29   19   20 2
    30   19   21 2
    31   19   22 1
    32   23   32 1
    33   24   33 1
@<TRIPOS>MOLECULE
ZINC38549817
   45    48     0     0     0
SMALL
USER_CHARGES

@<TRIPOS>ATOM
      1 C1          0.3693   -0.9090   -1.3793 C.3       1 <0>         0.0111
      2 C2          1.8053   -0.4564   -1.6572 C.3       1 <0>         0.0722
      3 O1          2.6120   -0.7122   -0.5044 O.3       1 <0>        -0.3851
      4 C3          2.1508   -0.0540    0.6786 C.3       1 <0>         0.0674
      5 C4          0.7184   -0.5024    0.9802 C.3       1 <0>         0.0206
      6 N1         -0.1339   -0.2178   -0.1833 N.3       1 <0>        -0.5231
      7 C5         -1.5314   -0.5819    0.0862 C.3       1 <0>         0.4162
      8 H1         -1.8512   -0.1557    1.0371 H         1 <0>         0.1336
      9 N2         -1.6733   -2.0417    0.1168 N.2       1 <0>        -0.4378
     10 C6         -2.4976   -2.3982   -0.8075 C.2       1 <0>         0.0905
     11 C7         -2.9838   -1.2021   -1.5433 C.2       1 <0>         0.3879
     12 N3         -3.8389   -1.3846   -2.5278 N.2       1 <0>        -0.5200
     13 C8         -4.2669   -2.6009   -2.8680 C.2       1 <0>         0.5411
     14 N4         -3.8930   -3.7200   -2.2750 N.2       1 <0>        -0.7273
     15 C9         -3.0271   -3.7206   -1.2539 C.2       1 <0>         0.5486
     16 O2         -2.6863   -4.7566   -0.7115 O.2       1 <0>        -0.5490
     17 N5         -5.1577   -2.6962   -3.9055 N.2       1 <0>        -0.7676
     18 N6         -2.3961   -0.0971   -0.9990 N.pl3     1 <0>        -0.5798
     19 C10        -2.5884    1.2949   -1.4131 C.3       1 <0>         0.3568
     20 H2         -1.9385    1.9574   -0.8415 H         1 <0>         0.1144
     21 C11        -4.0722    1.7126   -1.2511 C.3       1 <0>         0.0728
     22 H3         -4.7385    0.8899   -1.5107 H         1 <0>         0.1020
     23 C12        -4.1973    2.8684   -2.2733 C.3       1 <0>         0.0457
     24 H4         -5.1489    2.8092   -2.8016 H         1 <0>         0.0832
     25 C13        -3.0248    2.6402   -3.2468 C.3       1 <0>         0.0592
     26 H5         -2.3382    3.4857   -3.2048 H         1 <0>         0.0858
     27 O3         -2.3461    1.4422   -2.8288 O.3       1 <0>        -0.3446
     28 C14        -3.5566    2.4725   -4.6716 C.3       1 <0>         0.0759
     29 O4         -2.4591    2.3841   -5.5824 O.3       1 <0>        -0.5638
     30 O5         -4.0681    4.1318   -1.6181 O.3       1 <0>        -0.5413
     31 O6         -4.3298    2.1747    0.0764 O.3       1 <0>        -0.5372
     32 H6         -0.2614   -0.6638   -2.2338 H         1 <0>         0.0878
     33 H7          0.3532   -1.9858   -1.2111 H         1 <0>         0.0543
     34 H8          2.2024   -1.0084   -2.5091 H         1 <0>         0.0984
     35 H9          1.8142    0.6109   -1.8782 H         1 <0>         0.0593
     36 H10         2.7979   -0.3149    1.5160 H         1 <0>         0.0992
     37 H11         2.1698    1.0251    0.5255 H         1 <0>         0.0577
     38 H12         0.7079   -1.5727    1.1860 H         1 <0>         0.0623
     39 H13         0.3425    0.0395    1.8480 H         1 <0>         0.0879
     40 H14        -5.4906   -3.5647   -4.1807 H         1 <0>         0.3183
     41 H15        -4.1531    1.5621   -4.7319 H         1 <0>         0.0687
     42 H16        -4.1762    3.3307   -4.9315 H         1 <0>         0.0553
     43 H17        -2.7226    2.2764   -6.5066 H         1 <0>         0.3803
     44 H18        -4.1386    4.8918   -2.2118 H         1 <0>         0.3790
     45 H19        -5.2452    2.4476    0.2271 H         1 <0>         0.3830
@<TRIPOS>BOND
     1    1    6 1
     2    1    2 1
     3    1   32 1
     4    1   33 1
     5    2    3 1
     6    2   34 1
     7    2   35 1
     8    3    4 1
     9    4    5 1
    10    4   36 1
    11    4   37 1
    12    5    6 1
    13    5   38 1
    14    5   39 1
    15    6    7 1
    16    7    8 1
    17    7   18 1
    18    7    9 1
    19    9   10 2
    20   10   15 1
    21   10   11 1
    22   11   12 2
    23   11   18 1
    24   12   13 1
    25   13   14 2
    26   13   17 1
    27   14   15 1
    28   15   16 2
    29   17   40 1
    30   18   19 1
    31   19   20 1
    32   19   27 1
    33   19   21 1
    34   21   22 1
    35   21   23 1
    36   21   31 1
    37   23   24 1
    38   23   25 1
    39   23   30 1
    40   25   26 1
    41   25   27 1
    42   25   28 1
    43   28   29 1
    44   28   41 1
    45   28   42 1
    46   29   43 1
    47   30   44 1
    48   31   45 1
@<TRIPOS>MOLECULE
ZINC40698529
   27    27     0     0     0
SMALL
USER_CHARGES

@<TRIPOS>ATOM
      1 C1         -0.0167    1.3824    0.0096 C.2       1 <0>        -0.1049
      2 C2          1.2129    1.9961    0.0012 C.2       1 <0>        -0.0767
      3 C3          2.3317    1.2302   -0.0136 C.2       1 <0>        -0.2298
      4 S1          1.7515   -0.3464   -0.0165 S.3       1 <0>         0.3401
      5 C4          0.0021   -0.0041    0.0020 C.2       1 <0>        -0.1626
      6 C5         -1.1232   -0.9434    0.0081 C.2       1 <0>         0.5878
      7 O1         -2.2657   -0.5243    0.0217 O.2       1 <0>        -0.5092
      8 N1         -0.8926   -2.2713   -0.0013 N.am      1 <0>        -0.6802
      9 C6         -2.0172   -3.2101    0.0048 C.3       1 <0>         0.0768
     10 H1         -2.8297   -2.7999    0.6046 H         1 <0>         0.0922
     11 C7         -1.5650   -4.5438    0.6029 C.3       1 <0>        -0.1123
     12 C8         -1.1965   -4.3441    2.0743 C.3       1 <0>         0.0765
     13 O2         -0.7741   -5.5897    2.6329 O.3       1 <0>        -0.5737
     14 C9         -2.4962   -3.4293   -1.4071 C.2       1 <0>         0.4938
     15 O3         -1.7117   -3.3470   -2.3367 O.co2     1 <0>        -0.6849
     16 O4         -3.6683   -3.6891   -1.6198 O.co2     1 <0>        -0.6846
     17 N2          3.7418    1.6803   -0.0251 N.pl3     1 <0>         0.0815
     18 O5          3.9993    2.8616   -0.0216 O.2       1 <0>        -0.1387
     19 O6          4.6360    0.8667   -0.0379 O.3       1 <0>        -0.1468
     20 H2         -0.9390    1.9442    0.0258 H         1 <0>         0.1733
     21 H3          1.2870    3.0735    0.0059 H         1 <0>         0.1628
     22 H4          0.0180   -2.6053   -0.0121 H         1 <0>         0.3935
     23 H5         -2.3747   -5.2695    0.5264 H         1 <0>         0.0894
     24 H6         -0.6957   -4.9105    0.0571 H         1 <0>         0.0753
     25 H7         -0.3867   -3.6184    2.1508 H         1 <0>         0.0412
     26 H8         -2.0658   -3.9773    2.6201 H         1 <0>         0.0464
     27 H9         -0.5244   -5.5380    3.5657 H         1 <0>         0.3740
@<TRIPOS>BOND
     1    1    5 2
     2    1    2 1
     3    1   20 1
     4    2    3 2
     5    2   21 1
     6    3    4 1
     7    3   17 1
     8    4    5 1
     9    5    6 1
    10    6    7 2
    11    6    8 am
    12    8    9 1
    13    8   22 1
    14    9   10 1
    15    9   11 1
    16    9   14 1
    17   11   12 1
    18   11   23 1
    19   11   24 1
    20   12   13 1
    21   12   25 1
    22   12   26 1
    23   13   27 1
    24   14   15 2
    25   14   16 1
    26   17   18 2
    27   17   19 1
@<TRIPOS>MOLECULE
ZINC44511033
   36    36     0     0     0
SMALL
USER_CHARGES

@<TRIPOS>ATOM
      1 C1         -0.0189    1.5396    0.0105 C.3       1 <0>        -0.1573
      2 C2          1.4941    1.8898   -0.0021 C.3       1 <0>        -0.1514
      3 C3          2.0564    0.7339   -0.8673 C.3       1 <0>         0.0830
      4 H1          1.9340    0.9601   -1.9265 H         1 <0>         0.0764
      5 O1          1.2747   -0.4169   -0.5096 O.3       1 <0>        -0.3767
      6 C4          0.0021   -0.0041    0.0020 C.3       1 <0>         0.0498
      7 C5          3.5328    0.4974   -0.5429 C.3       1 <0>        -0.1287
      8 C6          4.1005   -0.5597   -1.4922 C.3       1 <0>         0.1368
      9 N1          5.5142   -0.7863   -1.1815 N.am      1 <0>        -0.7418
     10 C7          6.2256   -1.6820   -1.8942 C.2       1 <0>         0.6932
     11 O2          5.6944   -2.3019   -2.7946 O.2       1 <0>        -0.5267
     12 N2          7.5261   -1.8904   -1.6085 N.am      1 <0>        -0.6926
     13 C8          8.2376   -2.7861   -2.3212 C.2       1 <0>         0.5106
     14 O3          7.7077   -3.4044   -3.2193 O.2       1 <0>        -0.4319
     15 C9          9.6917   -3.0191   -2.0016 C.3       1 <0>         0.0411
     16 O4         10.2220   -4.0065   -2.8882 O.3       1 <0>        -0.3342
     17 C10        11.6025   -4.3033   -2.6689 C.3       1 <0>        -0.0037
     18 C11        12.0538   -5.3508   -3.6538 C.2       1 <0>         0.4976
     19 O5         11.2662   -5.8014   -4.4681 O.co2     1 <0>        -0.6678
     20 O6         13.2065   -5.7476   -3.6364 O.co2     1 <0>        -0.6963
     21 H2         -0.4967    1.9161    0.9150 H         1 <0>         0.0818
     22 H3         -0.5138    1.9257   -0.8806 H         1 <0>         0.0772
     23 H4          1.6698    2.8560   -0.4751 H         1 <0>         0.0844
     24 H5          1.9113    1.8657    1.0047 H         1 <0>         0.0803
     25 H6         -0.1287   -0.3812    1.0163 H         1 <0>         0.0689
     26 H7         -0.7944   -0.3812   -0.6395 H         1 <0>         0.0686
     27 H8          4.0853    1.4291   -0.6644 H         1 <0>         0.0832
     28 H9          3.6276    0.1503    0.4860 H         1 <0>         0.0788
     29 H10         3.5480   -1.4914   -1.3707 H         1 <0>         0.0767
     30 H11         4.0057   -0.2126   -2.5210 H         1 <0>         0.0683
     31 H12         5.9381   -0.2915   -0.4629 H         1 <0>         0.3962
     32 H13         7.9501   -1.3957   -0.8898 H         1 <0>         0.4069
     33 H14        10.2443   -2.0874   -2.1231 H         1 <0>         0.0766
     34 H15         9.7866   -3.3663   -0.9727 H         1 <0>         0.0767
     35 H16        12.1947   -3.3982   -2.8042 H         1 <0>         0.0480
     36 H17        11.7370   -4.6770   -1.6538 H         1 <0>         0.0480
@<TRIPOS>BOND
     1    1    6 1
     2    1    2 1
     3    1   21 1
     4    1   22 1
     5    2    3 1
     6    2   23 1
     7    2   24 1
     8    3    4 1
     9    3    5 1
    10    3    7 1
    11    5    6 1
    12    6   25 1
    13    6   26 1
    14    7    8 1
    15    7   27 1
    16    7   28 1
    17    8    9 1
    18    8   29 1
    19    8   30 1
    20    9   10 am
    21    9   31 1
    22   10   11 2
    23   10   12 am
    24   12   13 am
    25   12   32 1
    26   13   14 2
    27   13   15 1
    28   15   16 1
    29   15   33 1
    30   15   34 1
    31   16   17 1
    32   17   18 1
    33   17   35 1
    34   17   36 1
    35   18   19 2
    36   18   20 1
@<TRIPOS>MOLECULE
ZINC33908442
   28    28     0     0     0
SMALL
USER_CHARGES

@<TRIPOS>ATOM
      1 C1         -0.3820    1.0064   -0.7741 C.2       1 <0>        -0.1927
      2 C2          0.7152    1.3609   -1.4619 C.2       1 <0>        -0.0344
      3 O1          1.4217    0.2599   -1.7601 O.3       1 <0>        -0.1729
      4 C3          0.8179   -0.8375   -1.2834 C.2       1 <0>        -0.0109
      5 C4         -0.3261   -0.4566   -0.6479 C.2       1 <0>        -0.2028
      6 C5         -1.3037   -1.3304    0.0261 C.2       1 <0>         0.1327
      7 N1         -1.0402   -2.5908    0.1944 N.2       1 <0>        -0.2291
      8 N2          0.2878   -3.0370    0.1794 N.am      1 <0>        -0.5739
      9 C6          0.5558   -4.3570    0.2282 C.2       1 <0>         0.5784
     10 O2         -0.3493   -5.1564    0.3770 O.2       1 <0>        -0.4784
     11 C7          1.9448   -4.8318    0.1013 C.2       1 <0>         0.3608
     12 N3          2.9254   -3.9724    0.0409 N.2       1 <0>        -0.4690
     13 N4          4.2342   -4.4178   -0.1863 N.pl3     1 <0>        -0.4531
     14 C8          5.2612   -3.5426   -0.1476 C.2       1 <0>         0.6656
     15 N5          5.0466   -2.2609    0.2461 N.pl3     1 <0>        -0.7834
     16 N6          6.4958   -3.9397   -0.4988 N.2       1 <0>        -0.4226
     17 N7          6.6575   -5.0373   -1.1570 N.pl3     1 <0>         0.2598
     18 O3          5.6098   -5.6912   -1.6145 O.2       1 <0>        -0.4156
     19 O4          7.8702   -5.5040   -1.3715 O.3       1 <0>        -0.3188
     20 O5          2.2046   -6.1625    0.0473 O.3       1 <0>        -0.6743
     21 H1         -1.1474    1.6632   -0.3880 H         1 <0>         0.1581
     22 H2          0.9856    2.3709   -1.7324 H         1 <0>         0.2056
     23 H3          1.1764   -1.8511   -1.3859 H         1 <0>         0.2104
     24 H4         -2.2389   -0.9222    0.3799 H         1 <0>         0.1862
     25 H5          1.0143   -2.3960    0.1339 H         1 <0>         0.3976
     26 H6          4.1553   -1.9742    0.4997 H         1 <0>         0.4283
     27 H7          5.7846   -1.6320    0.2739 H         1 <0>         0.4219
     28 H8          4.4023   -5.3550   -0.3713 H         1 <0>         0.4266
@<TRIPOS>BOND
     1    1    5 1
     2    1    2 2
     3    1   21 1
     4    2    3 1
     5    2   22 1
     6    3    4 1
     7    4    5 2
     8    4   23 1
     9    5    6 1
    10    6    7 2
    11    6   24 1
    12    7    8 1
    13    8    9 am
    14    8   25 1
    15    9   10 2
    16    9   11 1
    17   11   12 2
    18   11   20 1
    19   12   13 1
    20   13   14 1
    21   13   28 1
    22   14   15 1
    23   14   16 2
    24   15   26 1
    25   15   27 1
    26   16   17 1
    27   17   18 2
    28   17   19 1
@<TRIPOS>MOLECULE
ZINC09431622
   53    55     0     0     0
SMALL
USER_CHARGES
4-(acetoxymethyl)-8-[2-(4-chloro-3,5-dimethyl-pyrazol-1-yl)butanoylamino]-7-oxo-2-thia-6-azabicyclo[4.2.0]oct-4-ene-5-carboxylic acid
@<TRIPOS>ATOM
      1 C1          6.3857    6.5735   -2.9853 C.3       1 <0>        -0.1512
      2 C2          5.7935    5.4709   -2.1053 C.3       1 <0>        -0.1307
      3 C3          5.2046    6.0919   -0.8370 C.3       1 <0>         0.1512
      4 H1          4.4885    6.8667   -1.1106 H         1 <0>         0.1334
      5 C4          4.5076    5.0251   -0.0324 C.2       1 <0>         0.5126
      6 O1          4.8336    4.8233    1.1182 O.2       1 <0>        -0.4946
      7 N1          3.5219    4.2955   -0.5915 N.am      1 <0>        -0.7074
      8 C5          2.7705    3.3353    0.2206 C.3       1 <0>         0.1282
      9 H2          3.3227    2.9976    1.0976 H         1 <0>         0.1584
     10 C6          2.1520    2.2002   -0.5885 C.3       1 <0>         0.1304
     11 H3          2.2263    2.2984   -1.6715 H         1 <0>         0.1365
     12 N2          0.8580    2.6184    0.0429 N.am      1 <0>        -0.5549
     13 C7          1.3477    3.7725    0.5261 C.2       1 <0>         0.5323
     14 O2          0.8518    4.7669    1.0123 O.2       1 <0>        -0.4367
     15 C8         -0.3190    1.8565    0.1080 C.2       1 <0>         0.1031
     16 C9         -0.2746    0.5414   -0.0414 C.2       1 <0>        -0.1639
     17 C10         0.9096   -0.3199   -0.3379 C.3       1 <0>        -0.0167
     18 S1          2.4772    0.5208    0.0460 S.3       1 <0>        -0.2338
     19 C11        -1.5894   -0.1800    0.1065 C.3       1 <0>         0.1387
     20 O3         -1.3653   -1.6131    0.0411 O.3       1 <0>        -0.3841
     21 C12        -2.4518   -2.4011    0.0542 C.2       1 <0>         0.4529
     22 O4         -3.5476   -1.9166    0.2108 O.2       1 <0>        -0.5048
     23 C13        -2.3051   -3.8900   -0.1266 C.3       1 <0>        -0.1451
     24 C14        -1.6126    2.5247    0.3380 C.2       1 <0>         0.4842
     25 O5         -1.6475    3.7158    0.5754 O.co2     1 <0>        -0.5935
     26 N3          6.2807    6.6819   -0.0370 N.pl3     1 <0>        -0.3448
     27 C15         6.3870    7.9808    0.3169 C.2       1 <0>         0.1077
     28 C16         7.5170    8.1173    1.0498 C.2       1 <0>        -0.1843
     29 C17         8.1214    6.8590    1.1468 C.2       1 <0>         0.0889
     30 N4          7.3781    5.9973    0.5009 N.2       1 <0>        -0.2545
     31 C18         9.4032    6.5485    1.8760 C.3       1 <0>        -0.0736
     32 Cl1         8.1108    9.5923    1.7465 Cl        1 <0>        -0.0442
     33 C19         5.4212    9.0811   -0.0404 C.3       1 <0>        -0.1005
     34 H4          5.6248    7.3284   -3.1832 H         1 <0>         0.0590
     35 H5          7.2297    7.0342   -2.4719 H         1 <0>         0.0574
     36 H6          6.7246    6.1434   -3.9278 H         1 <0>         0.0668
     37 H7          6.5766    4.7631   -1.8334 H         1 <0>         0.0893
     38 H8          5.0081    4.9508   -2.6537 H         1 <0>         0.0891
     39 H9          3.3101    4.4061   -1.5316 H         1 <0>         0.4077
     40 H10         0.8420   -1.2318    0.2553 H         1 <0>         0.1299
     41 H11         0.8992   -0.5850   -1.3951 H         1 <0>         0.0977
     42 H12        -2.0374    0.0743    1.0671 H         1 <0>         0.1023
     43 H13        -2.2608    0.1198   -0.6982 H         1 <0>         0.1058
     44 H14        -1.7533   -4.3057    0.7165 H         1 <0>         0.0950
     45 H15        -3.2925   -4.3490   -0.1765 H         1 <0>         0.0953
     46 H16        -1.7633   -4.0921   -1.0506 H         1 <0>         0.0932
     47 H17         9.1784    6.2833    2.9090 H         1 <0>         0.0806
     48 H18         9.9059    5.7136    1.3877 H         1 <0>         0.0759
     49 H19        10.0524    7.4239    1.8586 H         1 <0>         0.0790
     50 H20         4.6547    9.1564    0.7309 H         1 <0>         0.0889
     51 H21         5.9583   10.0269   -0.1124 H         1 <0>         0.0917
     52 H22         4.9520    8.8560   -0.9981 H         1 <0>         0.0751
     53 O6         -2.7568    1.8143    0.2848 O.co2     1 <0>        -0.7187
@<TRIPOS>BOND
     1    1    2 1
     2    1   34 1
     3    1   35 1
     4    1   36 1
     5    2    3 1
     6    2   37 1
     7    2   38 1
     8    3    4 1
     9    3    5 1
    10    3   26 1
    11    5    6 2
    12    5    7 am
    13    7    8 1
    14    7   39 1
    15    8    9 1
    16    8   13 1
    17    8   10 1
    18   10   11 1
    19   10   18 1
    20   10   12 1
    21   12   13 am
    22   12   15 1
    23   13   14 2
    24   15   16 2
    25   15   24 1
    26   16   17 1
    27   16   19 1
    28   17   18 1
    29   17   40 1
    30   17   41 1
    31   19   20 1
    32   19   42 1
    33   19   43 1
    34   20   21 1
    35   21   22 2
    36   21   23 1
    37   23   44 1
    38   23   45 1
    39   23   46 1
    40   24   25 2
    41   24   53 1
    42   26   30 1
    43   26   27 1
    44   27   28 2
    45   27   33 1
    46   28   29 1
    47   28   32 1
    48   29   30 2
    49   29   31 1
    50   31   47 1
    51   31   48 1
    52   31   49 1
    53   33   50 1
    54   33   51 1
    55   33   52 1
@<TRIPOS>MOLECULE
ZINC20082143
   57    60     0     0     0
SMALL
USER_CHARGES
(5R)-4-(furan-2-carbonyl)-3-hydroxy-5-(4-hydroxy-3-methoxy-phenyl)-1-(3-morpholinopropyl)-5H-pyrrol-2-one
@<TRIPOS>ATOM
      1 C1          1.5391    2.2279    4.9330 C.3       1 <0>         0.0232
      2 O1          2.9576    2.0966    4.8209 O.3       1 <0>        -0.3125
      3 C2          3.4542    1.7918    3.5921 C.ar      1 <0>         0.0816
      4 C3          2.5916    1.5150    2.5436 C.ar      1 <0>        -0.1370
      5 C4          3.0982    1.2002    1.2965 C.ar      1 <0>        -0.0742
      6 C5          4.4648    1.1709    1.0893 C.ar      1 <0>        -0.0941
      7 C6          5.3308    1.4515    2.1297 C.ar      1 <0>        -0.1856
      8 C7          4.8297    1.7627    3.3835 C.ar      1 <0>         0.1177
      9 O2          5.6803    2.0394    4.4079 O.3       1 <0>        -0.5036
     10 C8          2.1586    0.8944    0.1586 C.3       1 <0>         0.2588
     11 H1          2.7613    0.6165   -0.7186 H         1 <0>         0.0746
     12 C9          1.2673    2.0834   -0.1149 C.2       1 <0>        -0.4739
     13 C10        -0.0056    1.6709    0.0832 C.2       1 <0>         0.2805
     14 C11         0.0007    0.2485    0.4797 C.2       1 <0>         0.5082
     15 O3         -0.9896   -0.4104    0.7281 O.2       1 <0>        -0.5332
     16 N1          1.2646   -0.2104    0.5252 N.am      1 <0>        -0.6057
     17 C12         1.6756   -1.5716    0.8777 C.3       1 <0>         0.1377
     18 C13         1.7278   -2.4321   -0.3863 C.3       1 <0>        -0.1339
     19 C14         2.1571   -3.8537   -0.0182 C.3       1 <0>         0.0593
     20 N2          2.2071   -4.6799   -1.2318 N.3       1 <0>        -0.5350
     21 C15         0.8637   -4.8634   -1.8001 C.3       1 <0>         0.0117
     22 C16         0.9690   -5.6775   -3.0924 C.3       1 <0>         0.0624
     23 O4          1.6138   -6.9232   -2.8139 O.3       1 <0>        -0.3878
     24 C17         2.9247   -6.7818   -2.2599 C.3       1 <0>         0.0624
     25 C18         2.8393   -5.9789   -0.9592 C.3       1 <0>         0.0164
     26 O5         -1.1107    2.4389   -0.0642 O.3       1 <0>        -0.6052
     27 C19         1.6994    3.4268   -0.5184 C.2       1 <0>         0.4926
     28 O6          0.8871    4.3322   -0.5896 O.2       1 <0>        -0.4745
     29 C20         3.1080    3.6792   -0.8357 C.2       1 <0>        -0.0455
     30 C21         3.6735    4.9085   -1.0976 C.2       1 <0>        -0.1696
     31 C22         5.0340    4.6772   -1.3469 C.2       1 <0>        -0.2216
     32 C23         5.2411    3.3458   -1.2300 C.2       1 <0>        -0.0435
     33 O7          4.0830    2.7502   -0.9176 O.3       1 <0>        -0.1431
     34 H2          1.2746    2.4739    5.9720 H         1 <0>         0.0974
     35 H3          1.0594    1.2802    4.6471 H         1 <0>         0.0533
     36 H4          1.1914    3.0307    4.2662 H         1 <0>         0.0583
     37 H5          1.5235    1.5413    2.7017 H         1 <0>         0.1295
     38 H6          4.8566    0.9285    0.1125 H         1 <0>         0.1247
     39 H7          6.3980    1.4279    1.9652 H         1 <0>         0.1266
     40 H8          6.7674    2.0161    4.2417 H         1 <0>         0.4208
     41 H9          2.6714   -1.5447    1.3443 H         1 <0>         0.0771
     42 H10         0.9510   -2.0020    1.5846 H         1 <0>         0.0757
     43 H11         0.7320   -2.4590   -0.8529 H         1 <0>         0.0683
     44 H12         2.4524   -2.0017   -1.0932 H         1 <0>         0.0765
     45 H13         3.1529   -3.8268    0.4483 H         1 <0>         0.0780
     46 H14         1.4325   -4.2841    0.6888 H         1 <0>         0.0366
     47 H15         0.2300   -5.3988   -1.0778 H         1 <0>         0.0429
     48 H16         0.4206   -3.8806   -2.0187 H         1 <0>         0.0935
     49 H17        -0.0390   -5.8652   -3.4907 H         1 <0>         0.0989
     50 H18         1.5570   -5.1155   -3.8329 H         1 <0>         0.0608
     51 H19         3.3441   -7.7772   -2.0518 H         1 <0>         0.0967
     52 H20         3.5709   -6.2543   -2.9770 H         1 <0>         0.0597
     53 H21         3.8510   -5.8174   -0.5586 H         1 <0>         0.0862
     54 H22         2.2376   -6.5323   -0.2233 H         1 <0>         0.0414
     55 H23         3.1679    5.8628   -1.1092 H         1 <0>         0.1490
     56 H24         5.7773    5.4228   -1.5877 H         1 <0>         0.1440
     57 H25         6.1884    2.8444   -1.3623 H         1 <0>         0.1966
@<TRIPOS>BOND
     1    1    2 1
     2    1   34 1
     3    1   35 1
     4    1   36 1
     5    2    3 1
     6    3    8 ar
     7    3    4 ar
     8    4    5 ar
     9    4   37 1
    10    5    6 ar
    11    5   10 1
    12    6    7 ar
    13    6   38 1
    14    7    8 ar
    15    7   39 1
    16    8    9 1
    17    9   40 1
    18   10   11 1
    19   10   16 1
    20   10   12 1
    21   12   13 2
    22   12   27 1
    23   13   14 1
    24   13   26 1
    25   14   15 2
    26   14   16 am
    27   16   17 1
    28   17   18 1
    29   17   41 1
    30   17   42 1
    31   18   19 1
    32   18   43 1
    33   18   44 1
    34   19   20 1
    35   19   45 1
    36   19   46 1
    37   20   25 1
    38   20   21 1
    39   21   22 1
    40   21   47 1
    41   21   48 1
    42   22   23 1
    43   22   49 1
    44   22   50 1
    45   23   24 1
    46   24   25 1
    47   24   51 1
    48   24   52 1
    49   25   53 1
    50   25   54 1
    51   27   28 2
    52   27   29 1
    53   29   33 1
    54   29   30 2
    55   30   31 1
    56   30   55 1
    57   31   32 2
    58   31   56 1
    59   32   33 1
    60   32   57 1
@<TRIPOS>MOLECULE
ZINC36367398
   72    76     0     0     0
SMALL
USER_CHARGES

@<TRIPOS>ATOM
      1 C1         -0.1412    1.4638    0.0297 C.3       1 <0>        -0.1479
      2 C2         -0.0601   -0.0640    0.0229 C.3       1 <0>        -0.0447
      3 C3         -1.4735   -0.6495    0.0336 C.3       1 <0>        -0.1080
      4 C4         -1.3933   -2.1773    0.0297 C.3       1 <0>        -0.1358
      5 C5         -0.6349   -2.6515    1.2710 C.3       1 <0>         0.0854
      6 H1         -0.5779   -3.7400    1.2683 H         1 <0>         0.0778
      7 C6          0.7789   -2.0667    1.2592 C.3       1 <0>        -0.1103
      8 C7          0.6988   -0.5396    1.2632 C.3       1 <0>        -0.0736
      9 H2          0.1756   -0.2061    2.1593 H         1 <0>         0.0825
     10 C8          2.1124    0.0454    1.2513 C.3       1 <0>        -0.1151
     11 C9          2.8473   -0.4216   -0.0066 C.3       1 <0>        -0.1175
     12 C10         2.0876    0.0526   -1.2476 C.3       1 <0>        -0.0996
     13 H3          2.0159    1.1398   -1.2170 H         1 <0>         0.0793
     14 C11         0.6752   -0.5299   -1.2355 C.3       1 <0>        -0.0638
     15 H4          0.7280   -1.6186   -1.2475 H         1 <0>         0.0889
     16 C12        -0.0705   -0.0217   -2.4740 C.3       1 <0>        -0.1552
     17 C13         0.6364   -0.5510   -3.7190 C.3       1 <0>         0.1169
     18 H5          0.0858   -0.2361   -4.6054 H         1 <0>         0.0573
     19 C14         2.0681   -0.0157   -3.7985 C.3       1 <0>        -0.0259
     20 C15         2.8250   -0.3466   -2.5023 C.3       1 <0>         0.1529
     21 C16         3.0758   -1.8636   -2.5853 C.3       1 <0>        -0.1416
     22 C17         3.4019   -2.0938   -4.0790 C.3       1 <0>        -0.0943
     23 C18         2.8078   -0.8767   -4.8569 C.3       1 <0>        -0.0285
     24 H6          2.0991   -1.2541   -5.5940 H         1 <0>         0.0914
     25 C19         3.8750   -0.0577   -5.5360 C.2       1 <0>        -0.0482
     26 C20         3.8975    0.3128   -6.8145 C.2       1 <0>        -0.2590
     27 C21         5.1103    1.0983   -7.0630 C.2       1 <0>         0.4952
     28 O1          5.4224    1.5825   -8.1332 O.2       1 <0>        -0.4664
     29 O2          5.8255    1.2034   -5.9280 O.3       1 <0>        -0.3269
     30 C22         5.1214    0.5060   -4.8954 C.3       1 <0>         0.0591
     31 O3          4.0869    0.3230   -2.5382 O.3       1 <0>        -0.5642
     32 C23         2.0946    1.4715   -4.1566 C.3       1 <0>        -0.1391
     33 O4          0.6708   -1.9787   -3.6692 O.3       1 <0>        -0.5553
     34 O5         -1.3218   -2.2134    2.4451 O.3       1 <0>        -0.3452
     35 C24        -2.2531   -3.0380    2.9495 C.2       1 <0>         0.4574
     36 O6         -2.4778   -4.0965    2.4121 O.2       1 <0>        -0.5145
     37 C25        -3.0186   -2.6433    4.1862 C.3       1 <0>        -0.0860
     38 C26        -4.0104   -3.7510    4.5473 C.3       1 <0>        -0.1715
     39 C27        -4.7758   -3.3564    5.7839 C.2       1 <0>         0.4925
     40 O7         -4.5491   -2.2882    6.3263 O.co2     1 <0>        -0.6984
     41 O8         -5.6218   -4.1053    6.2421 O.co2     1 <0>        -0.6992
     42 H7          0.8657    1.8812    0.0218 H         1 <0>         0.0595
     43 H8         -0.6819    1.8029   -0.8539 H         1 <0>         0.0540
     44 H9         -0.6652    1.7959    0.9259 H         1 <0>         0.0561
     45 H10        -1.9983   -0.3155    0.9287 H         1 <0>         0.0709
     46 H11        -2.0132   -0.3118   -0.8511 H         1 <0>         0.0625
     47 H12        -2.4004   -2.5940    0.0380 H         1 <0>         0.0662
     48 H13        -0.8693   -2.5113   -0.8658 H         1 <0>         0.0765
     49 H14         1.3194   -2.4047    2.1433 H         1 <0>         0.0688
     50 H15         1.3026   -2.4003    0.3633 H         1 <0>         0.0824
     51 H16         2.0552    1.1339    1.2555 H         1 <0>         0.0660
     52 H17         2.6533   -0.2933    2.1349 H         1 <0>         0.0629
     53 H18         3.8541   -0.0039   -0.0153 H         1 <0>         0.0584
     54 H19         2.9056   -1.5101   -0.0102 H         1 <0>         0.0675
     55 H20        -1.0989   -0.3827   -2.4558 H         1 <0>         0.0741
     56 H21        -0.0627    1.0682   -2.4843 H         1 <0>         0.0777
     57 H22         3.9218   -2.1476   -1.9595 H         1 <0>         0.0639
     58 H23         2.1816   -2.4168   -2.2979 H         1 <0>         0.0983
     59 H24         4.4816   -2.1051   -4.2280 H         1 <0>         0.0549
     60 H25         2.9682   -3.0356   -4.4151 H         1 <0>         0.0751
     61 H26         3.1438    0.0734   -7.5501 H         1 <0>         0.1621
     62 H27         4.8518    1.1932   -4.0934 H         1 <0>         0.1469
     63 H28         5.7393   -0.3023   -4.5042 H         1 <0>         0.1124
     64 H29         4.6580    0.1266   -1.7830 H         1 <0>         0.3749
     65 H30         1.4891    2.0283   -3.4414 H         1 <0>         0.0634
     66 H31         3.1217    1.8349   -4.1236 H         1 <0>         0.0737
     67 H32         1.6918    1.6109   -5.1598 H         1 <0>         0.0579
     68 H33        -0.2027   -2.3923   -3.6367 H         1 <0>         0.3760
     69 H34        -2.3230   -2.4951    5.0122 H         1 <0>         0.1030
     70 H35        -3.5613   -1.7171    3.9975 H         1 <0>         0.1028
     71 H36        -4.7060   -3.8993    3.7213 H         1 <0>         0.0650
     72 H37        -3.4677   -4.6773    4.7360 H         1 <0>         0.0652
@<TRIPOS>BOND
     1    1    2 1
     2    1   42 1
     3    1   43 1
     4    1   44 1
     5    2    8 1
     6    2   14 1
     7    2    3 1
     8    3    4 1
     9    3   45 1
    10    3   46 1
    11    4    5 1
    12    4   47 1
    13    4   48 1
    14    5    6 1
    15    5    7 1
    16    5   34 1
    17    7    8 1
    18    7   49 1
    19    7   50 1
    20    8    9 1
    21    8   10 1
    22   10   11 1
    23   10   51 1
    24   10   52 1
    25   11   12 1
    26   11   53 1
    27   11   54 1
    28   12   13 1
    29   12   20 1
    30   12   14 1
    31   14   15 1
    32   14   16 1
    33   16   17 1
    34   16   55 1
    35   16   56 1
    36   17   18 1
    37   17   19 1
    38   17   33 1
    39   19   23 1
    40   19   20 1
    41   19   32 1
    42   20   21 1
    43   20   31 1
    44   21   22 1
    45   21   57 1
    46   21   58 1
    47   22   23 1
    48   22   59 1
    49   22   60 1
    50   23   24 1
    51   23   25 1
    52   25   30 1
    53   25   26 2
    54   26   27 1
    55   26   61 1
    56   27   28 2
    57   27   29 1
    58   29   30 1
    59   30   62 1
    60   30   63 1
    61   31   64 1
    62   32   65 1
    63   32   66 1
    64   32   67 1
    65   33   68 1
    66   34   35 1
    67   35   36 2
    68   35   37 1
    69   37   38 1
    70   37   69 1
    71   37   70 1
    72   38   39 1
    73   38   71 1
    74   38   72 1
    75   39   40 2
    76   39   41 1
@<TRIPOS>MOLECULE
ZINC40094946
   60    63     0     0     0
SMALL
USER_CHARGES

@<TRIPOS>ATOM
      1 C1          1.0183   -5.6773    1.8833 C.3       1 <0>        -0.1708
      2 C2          1.8541   -6.5951    0.9888 C.3       1 <0>         0.0758
      3 H1          1.3252   -7.5282    0.7942 H         1 <0>         0.1124
      4 C3          2.2184   -5.8852   -0.3365 C.3       1 <0>        -0.1031
      5 C4          3.5700   -5.2811   -0.0064 C.ar      1 <0>        -0.1892
      6 C5          4.3191   -4.3107   -0.6238 C.ar      1 <0>        -0.0243
      7 C6          5.5542   -3.9357   -0.0842 C.ar      1 <0>        -0.1617
      8 C7          6.0122   -4.5567    1.0821 C.ar      1 <0>        -0.0312
      9 C8          5.2555   -5.5297    1.6900 C.ar      1 <0>        -0.1522
     10 C9          4.0241   -5.9079    1.1510 C.ar      1 <0>         0.1158
     11 O1          3.1383   -6.8520    1.5814 O.3       1 <0>        -0.3016
     12 C10         6.3675   -2.8935   -0.7408 C.2       1 <0>         0.5059
     13 O2          6.0137   -2.4280   -1.8081 O.2       1 <0>        -0.4768
     14 C11         7.6018   -2.4190   -0.1071 C.2       1 <0>        -0.4992
     15 C12         8.8561   -2.5237   -0.6042 C.2       1 <0>         0.2628
     16 C13         9.8087   -1.9184    0.3500 C.2       1 <0>         0.5094
     17 O3         11.0115   -1.8561    0.1897 O.2       1 <0>        -0.5361
     18 N1          9.1472   -1.4466    1.4223 N.am      1 <0>        -0.6102
     19 C14         7.7177   -1.7133    1.2238 C.3       1 <0>         0.2605
     20 H2          7.3441   -2.3547    2.0220 H         1 <0>         0.0730
     21 C15         6.9454   -0.4196    1.1933 C.ar      1 <0>        -0.0258
     22 C16         5.8246   -0.2665    1.9882 C.ar      1 <0>        -0.1288
     23 C17         5.1127    0.9182    1.9638 C.ar      1 <0>        -0.1062
     24 C18         5.5222    1.9557    1.1417 C.ar      1 <0>         0.0591
     25 C19         6.6505    1.8018    0.3419 C.ar      1 <0>         0.0995
     26 C20         7.3623    0.6134    0.3747 C.ar      1 <0>        -0.1400
     27 O4          7.0564    2.8172   -0.4666 O.3       1 <0>        -0.3153
     28 C21         8.1591    2.5529   -1.3362 C.3       1 <0>         0.0261
     29 O5          4.8227    3.1217    1.1161 O.3       1 <0>        -0.4879
     30 C22         9.7471   -0.7796    2.5806 C.3       1 <0>         0.1397
     31 C23         9.9245    0.7093    2.2764 C.3       1 <0>         0.0454
     32 O6          8.7836    1.4306    2.7457 O.3       1 <0>        -0.3631
     33 C24         8.9078    2.8499    2.6360 C.3       1 <0>         0.0643
     34 C25         7.7116    3.5205    3.3145 C.3       1 <0>         0.0790
     35 O7          7.8067    3.3452    4.7295 O.3       1 <0>        -0.5650
     36 O8          9.1857   -3.0922   -1.7869 O.3       1 <0>        -0.6515
     37 H3          1.5697   -4.7569    2.0754 H         1 <0>         0.0646
     38 H4          0.0788   -5.4406    1.3839 H         1 <0>         0.0732
     39 H5          0.8111   -6.1806    2.8276 H         1 <0>         0.0660
     40 H6          2.3012   -6.6026   -1.1529 H         1 <0>         0.0884
     41 H7          1.4920   -5.1082   -0.5747 H         1 <0>         0.0904
     42 H8          3.9560   -3.8378   -1.5244 H         1 <0>         0.1306
     43 H9          6.9635   -4.2711    1.5062 H         1 <0>         0.1429
     44 H10         5.6157   -6.0049    2.5904 H         1 <0>         0.1281
     45 H11         5.5044   -1.0744    2.6294 H         1 <0>         0.1221
     46 H12         4.2371    1.0350    2.5852 H         1 <0>         0.1262
     47 H13         8.2406    0.4928   -0.2422 H         1 <0>         0.1215
     48 H14         8.4213    3.4621   -1.8772 H         1 <0>         0.0964
     49 H15         9.0144    2.2208   -0.7478 H         1 <0>         0.0494
     50 H16         7.8827    1.7741   -2.0470 H         1 <0>         0.0601
     51 H17         5.1728    3.8034    1.7059 H         1 <0>         0.3710
     52 H18         9.0953   -0.8985    3.4461 H         1 <0>         0.0919
     53 H19        10.7188   -1.2253    2.7935 H         1 <0>         0.0912
     54 H20        10.8192    1.0785    2.7777 H         1 <0>         0.0527
     55 H21        10.0263    0.8507    1.2004 H         1 <0>         0.0510
     56 H22         9.8288    3.1727    3.1214 H         1 <0>         0.0510
     57 H23         8.9336    3.1321    1.5835 H         1 <0>         0.0570
     58 H24         7.7102    4.5848    3.0795 H         1 <0>         0.0552
     59 H25         6.7882    3.0675    2.9536 H         1 <0>         0.0553
     60 H26         7.1222    3.8098    5.2303 H         1 <0>         0.3753
@<TRIPOS>BOND
     1    1    2 1
     2    1   37 1
     3    1   38 1
     4    1   39 1
     5    2    3 1
     6    2   11 1
     7    2    4 1
     8    4    5 1
     9    4   40 1
    10    4   41 1
    11    5   10 ar
    12    5    6 ar
    13    6    7 ar
    14    6   42 1
    15    7    8 ar
    16    7   12 1
    17    8    9 ar
    18    8   43 1
    19    9   10 ar
    20    9   44 1
    21   10   11 1
    22   12   13 2
    23   12   14 1
    24   14   19 1
    25   14   15 2
    26   15   16 1
    27   15   36 1
    28   16   17 2
    29   16   18 am
    30   18   19 1
    31   18   30 1
    32   19   20 1
    33   19   21 1
    34   21   26 ar
    35   21   22 ar
    36   22   23 ar
    37   22   45 1
    38   23   24 ar
    39   23   46 1
    40   24   25 ar
    41   24   29 1
    42   25   26 ar
    43   25   27 1
    44   26   47 1
    45   27   28 1
    46   28   48 1
    47   28   49 1
    48   28   50 1
    49   29   51 1
    50   30   31 1
    51   30   52 1
    52   30   53 1
    53   31   32 1
    54   31   54 1
    55   31   55 1
    56   32   33 1
    57   33   34 1
    58   33   56 1
    59   33   57 1
    60   34   35 1
    61   34   58 1
    62   34   59 1
    63   35   60 1
@<TRIPOS>MOLECULE
ZINC41077713
   41    44     0     0     0
SMALL
USER_CHARGES

@<TRIPOS>ATOM
      1 C1          1.6698    4.4427   -0.5269 C.3       1 <0>        -0.6353
      2 S1          1.0181    2.7732   -0.2469 S.o2      1 <0>         2.5266
      3 O1          1.6664    2.1752    0.8673 O.2       1 <0>        -0.8973
      4 O2         -0.3997    2.7788   -0.3428 O.2       1 <0>        -0.8962
      5 C2          1.5591    1.8366   -1.6378 C.2       1 <0>        -0.4607
      6 N1          2.6123    1.0794   -1.7537 N.2       1 <0>        -0.1179
      7 N2          2.8838    0.4062   -2.9255 N.pl3     1 <0>        -0.4312
      8 C3          3.9424   -0.5050   -3.1280 C.2       1 <0>         0.4717
      9 N3          4.5381   -1.1426   -2.1532 N.2       1 <0>        -0.6486
     10 C4          4.3139   -0.6696   -4.5589 C.2       1 <0>        -0.2548
     11 C5          5.6211   -0.9178   -4.9498 C.2       1 <0>         0.1256
     12 C6          5.9786   -0.8249   -6.3051 C.2       1 <0>        -0.0754
     13 C7          7.2021   -1.1860   -6.8508 C.2       1 <0>        -0.1009
     14 C8          7.1240   -0.9301   -8.2191 C.2       1 <0>        -0.2352
     15 C9          5.8648   -0.4247   -8.4644 C.2       1 <0>         0.1314
     16 O3          5.1890   -0.3742   -7.3035 O.3       1 <0>        -0.1206
     17 C10         5.3439   -0.0133   -9.7824 C.ar      1 <0>        -0.0771
     18 C11         6.1484   -0.1271  -10.9208 C.ar      1 <0>        -0.0902
     19 C12         5.6629    0.2572  -12.1544 C.ar      1 <0>        -0.1425
     20 C13         4.3810    0.7564  -12.2746 C.ar      1 <0>        -0.0613
     21 C14         3.5650    0.8760  -11.1456 C.ar      1 <0>        -0.1372
     22 C15         4.0465    0.4845   -9.8968 C.ar      1 <0>        -0.0412
     23 C16         2.1957    1.4106  -11.2759 C.2       1 <0>         0.5194
     24 O4          1.7735    1.7496  -12.3724 O.co2     1 <0>        -0.6861
     25 O5          1.4833    1.5147  -10.2874 O.co2     1 <0>        -0.6769
     26 C17         3.2143   -0.5548   -5.5440 C.2       1 <0>         0.5350
     27 O6          3.2892   -1.0983   -6.6348 O.2       1 <0>        -0.3970
     28 N4          2.1277    0.1665   -5.2017 N.2       1 <0>        -0.5028
     29 C18         2.0243    0.6261   -3.9806 C.2       1 <0>         0.3699
     30 S2          0.7983    1.6770   -3.2476 S.3       1 <0>         0.2009
     31 H1          2.7574    4.4027   -0.5877 H         1 <0>         0.1409
     32 H2          1.2681    4.8378   -1.4600 H         1 <0>         0.1439
     33 H3          1.3756    5.0908    0.2986 H         1 <0>         0.1494
     34 H4          4.2564   -0.9990   -1.2362 H         1 <0>         0.3601
     35 H5          6.3642   -1.1826   -4.2123 H         1 <0>         0.1731
     36 H6          8.0515   -1.5875   -6.3181 H         1 <0>         0.1626
     37 H7          7.9025   -1.0964   -8.9489 H         1 <0>         0.1597
     38 H8          7.1521   -0.5164  -10.8344 H         1 <0>         0.1218
     39 H9          6.2887    0.1673  -13.0300 H         1 <0>         0.1245
     40 H10         4.0079    1.0554  -13.2430 H         1 <0>         0.1327
     41 H11         3.4193    0.5708   -9.0219 H         1 <0>         0.1370
@<TRIPOS>BOND
     1    1    2 1
     2    1   31 1
     3    1   32 1
     4    1   33 1
     5    2    3 2
     6    2    4 2
     7    2    5 1
     8    5   30 1
     9    5    6 2
    10    6    7 1
    11    7   29 1
    12    7    8 1
    13    8    9 2
    14    8   10 1
    15    9   34 1
    16   10   11 2
    17   10   26 1
    18   11   12 1
    19   11   35 1
    20   12   16 1
    21   12   13 2
    22   13   14 1
    23   13   36 1
    24   14   15 2
    25   14   37 1
    26   15   16 1
    27   15   17 1
    28   17   22 ar
    29   17   18 ar
    30   18   19 ar
    31   18   38 1
    32   19   20 ar
    33   19   39 1
    34   20   21 ar
    35   20   40 1
    36   21   22 ar
    37   21   23 1
    38   22   41 1
    39   23   24 2
    40   23   25 1
    41   26   27 2
    42   26   28 1
    43   28   29 2
    44   29   30 1
@<TRIPOS>MOLECULE
ZINC13575528
   51    54     0     0     0
SMALL
USER_CHARGES

@<TRIPOS>ATOM
      1 C1         -1.0582    1.0899    3.6565 C.3       1 <0>        -0.1784
      2 C2         -0.9437   -0.3796    3.3426 C.2       1 <0>         0.5320
      3 O1         -0.0047   -1.0190    3.7671 O.2       1 <0>        -0.5166
      4 N1         -1.8849   -0.9832    2.5900 N.am      1 <0>        -0.4249
      5 C3         -1.8931   -2.4048    2.2183 C.3       1 <0>         0.1713
      6 H1         -1.9455   -3.0309    3.1090 H         1 <0>         0.1096
      7 C4         -3.1660   -2.5718    1.3679 C.3       1 <0>        -0.0889
      8 C5         -3.7778   -1.1896    1.3362 C.2       1 <0>         0.3204
      9 C6         -4.9502   -0.8410    0.6825 C.2       1 <0>        -0.3656
     10 C7         -5.7363   -1.8322   -0.0642 C.2       1 <0>         0.5219
     11 O2         -5.3361   -3.1192   -0.1350 O.3       1 <0>        -0.6503
     12 N2         -6.8459   -1.4347   -0.6654 N.2       1 <0>        -0.6631
     13 C8         -7.2644   -0.1734   -0.6121 C.2       1 <0>         0.6667
     14 O3         -8.2966    0.1160   -1.1911 O.2       1 <0>        -0.5738
     15 N3         -6.6122    0.7970    0.0447 N.am      1 <0>        -0.5496
     16 C9         -5.4663    0.5392    0.7109 C.2       1 <0>         0.5820
     17 O4         -4.8769    1.4186    1.3114 O.2       1 <0>        -0.5619
     18 C10        -7.1313    2.0990    0.0440 C.ar      1 <0>         0.1674
     19 C11        -6.7609    2.9947   -0.9500 C.ar      1 <0>        -0.0904
     20 C12        -7.2741    4.2769   -0.9487 C.ar      1 <0>        -0.1025
     21 C13        -8.1565    4.6693    0.0425 C.ar      1 <0>        -0.0369
     22 C14        -8.5269    3.7784    1.0346 C.ar      1 <0>        -0.1027
     23 C15        -8.0212    2.4932    1.0341 C.ar      1 <0>        -0.0904
     24 Cl1        -8.7995    6.2818    0.0417 Cl        1 <0>        -0.0795
     25 N4         -3.0059   -0.3585    2.0474 N.pl3     1 <0>        -0.4838
     26 C16        -0.6680   -2.7443    1.4090 C.ar      1 <0>        -0.0539
     27 C17        -0.1830   -1.8422    0.4804 C.ar      1 <0>        -0.1195
     28 C18         0.9405   -2.1490   -0.2644 C.ar      1 <0>        -0.1026
     29 C19         1.5833   -3.3627   -0.0808 C.ar      1 <0>         0.0770
     30 C20         1.0954   -4.2705    0.8542 C.ar      1 <0>         0.1060
     31 C21        -0.0284   -3.9548    1.6009 C.ar      1 <0>        -0.1701
     32 O5          1.7228   -5.4630    1.0380 O.3       1 <0>        -0.3080
     33 C22         1.1661   -6.3452    2.0146 C.3       1 <0>         0.0232
     34 O6          2.6884   -3.6662   -0.8130 O.3       1 <0>        -0.4859
     35 H2         -0.2121    1.3971    4.2712 H         1 <0>         0.1013
     36 H3         -1.0590    1.6608    2.7280 H         1 <0>         0.0929
     37 H4         -1.9863    1.2746    4.1975 H         1 <0>         0.0933
     38 H5         -2.9108   -2.8988    0.3599 H         1 <0>         0.1295
     39 H6         -3.8483   -3.2799    1.8381 H         1 <0>         0.1307
     40 H7         -6.0717    2.6892   -1.7233 H         1 <0>         0.1309
     41 H8         -6.9863    4.9741   -1.7217 H         1 <0>         0.1350
     42 H9         -9.2151    4.0872    1.8075 H         1 <0>         0.1349
     43 H10        -8.3139    1.7970    1.8061 H         1 <0>         0.1308
     44 H11        -3.2051    0.5829    2.1699 H         1 <0>         0.4467
     45 H12        -0.6831   -0.8959    0.3364 H         1 <0>         0.1233
     46 H13         1.3169   -1.4428   -0.9897 H         1 <0>         0.1366
     47 H14        -0.4069   -4.6560    2.3298 H         1 <0>         0.1360
     48 H15         1.1716   -5.8579    2.9896 H         1 <0>         0.0558
     49 H16         0.1412   -6.5930    1.7382 H         1 <0>         0.0589
     50 H17         1.7606   -7.2576    2.0610 H         1 <0>         0.1002
     51 H18         3.5196   -3.3891   -0.4039 H         1 <0>         0.3845
@<TRIPOS>BOND
     1    1    2 1
     2    1   35 1
     3    1   36 1
     4    1   37 1
     5    2    3 2
     6    2    4 am
     7    4   25 1
     8    4    5 1
     9    5    6 1
    10    5    7 1
    11    5   26 1
    12    7    8 1
    13    7   38 1
    14    7   39 1
    15    8    9 2
    16    8   25 1
    17    9   16 1
    18    9   10 1
    19   10   11 1
    20   10   12 2
    21   12   13 1
    22   13   14 2
    23   13   15 am
    24   15   16 am
    25   15   18 1
    26   16   17 2
    27   18   23 ar
    28   18   19 ar
    29   19   20 ar
    30   19   40 1
    31   20   21 ar
    32   20   41 1
    33   21   22 ar
    34   21   24 1
    35   22   23 ar
    36   22   42 1
    37   23   43 1
    38   25   44 1
    39   26   31 ar
    40   26   27 ar
    41   27   28 ar
    42   27   45 1
    43   28   29 ar
    44   28   46 1
    45   29   30 ar
    46   29   34 1
    47   30   31 ar
    48   30   32 1
    49   31   47 1
    50   32   33 1
    51   33   48 1
    52   33   49 1
    53   33   50 1
    54   34   51 1
@<TRIPOS>MOLECULE
ZINC12881094
   60    62     0     0     0
SMALL
USER_CHARGES
(2S,3S)-2-[[(2S)-2-[[(3S)-1-(2,3-dihydro-1,4-benzodioxin-6-yl)-5-oxo-pyrrolidine-3-carbonyl]amino]propanoyl]amino]-3-methyl-pentanoic acid
@<TRIPOS>ATOM
      1 C1          5.8317    2.1163   -1.6003 C.3       1 <0>        -0.1477
      2 C2          4.7964    1.2708   -0.8559 C.3       1 <0>        -0.1260
      3 C3          3.4938    2.0619   -0.7209 C.3       1 <0>        -0.0754
      4 H1          3.1619    2.3865   -1.7071 H         1 <0>         0.0586
      5 C4          3.7301    3.2860    0.1661 C.3       1 <0>        -0.1462
      6 C5          2.4207    1.1734   -0.0886 C.3       1 <0>         0.0999
      7 H2          2.3154    0.2592   -0.6727 H         1 <0>         0.0867
      8 C6          2.8235    0.8252    1.3212 C.2       1 <0>         0.4654
      9 O1          2.1160    1.1429    2.2477 O.co2     1 <0>        -0.6300
     10 N1          1.1430    1.8899   -0.0685 N.am      1 <0>        -0.6919
     11 C7         -0.0154    1.2014   -0.0451 C.2       1 <0>         0.5134
     12 O2         -0.0001   -0.0113   -0.0407 O.2       1 <0>        -0.5436
     13 C8         -1.3298    1.9385   -0.0307 C.3       1 <0>         0.1277
     14 H3         -1.4071    2.5610   -0.9221 H         1 <0>         0.1106
     15 C9         -1.4056    2.8217    1.2163 C.3       1 <0>        -0.1564
     16 N2         -2.4311    0.9725   -0.0127 N.am      1 <0>        -0.7023
     17 C10        -3.6416    1.3217   -0.4915 C.2       1 <0>         0.5217
     18 O3         -3.8192    2.4355   -0.9373 O.2       1 <0>        -0.5337
     19 C11        -4.7745    0.3281   -0.4729 C.3       1 <0>        -0.1246
     20 H4         -4.4988   -0.5848   -1.0009 H         1 <0>         0.1353
     21 C12        -5.2152    0.0183    0.9765 C.3       1 <0>        -0.1445
     22 C13        -6.3452    0.9899    1.2364 C.2       1 <0>         0.5180
     23 O4         -6.7817    1.2707    2.3326 O.2       1 <0>        -0.5033
     24 N3         -6.7952    1.4968    0.0756 N.am      1 <0>        -0.5515
     25 C14        -6.0600    0.9441   -1.0681 C.3       1 <0>         0.1114
     26 C15        -7.8325    2.4327   -0.0291 C.ar      1 <0>         0.1788
     27 C16        -8.1428    2.9907   -1.2620 C.ar      1 <0>        -0.1481
     28 C17        -9.1678    3.9108   -1.3663 C.ar      1 <0>        -0.0839
     29 C18        -9.8831    4.2879   -0.2392 C.ar      1 <0>         0.0213
     30 C19        -9.5729    3.7332    0.9969 C.ar      1 <0>         0.0798
     31 C20        -8.5464    2.8069    1.1004 C.ar      1 <0>        -0.1541
     32 O5        -10.2692    4.0844    2.1125 O.3       1 <0>        -0.3038
     33 C21       -11.0420    5.2872    2.0372 C.3       1 <0>         0.0199
     34 C22       -11.8248    5.2739    0.7172 C.3       1 <0>         0.0213
     35 O6        -10.8846    5.2029   -0.3603 O.3       1 <0>        -0.3081
     36 H5          5.4530    2.3646   -2.5918 H         1 <0>         0.0414
     37 H6          6.0200    3.0339   -1.0430 H         1 <0>         0.0508
     38 H7          6.7598    1.5527   -1.6965 H         1 <0>         0.0480
     39 H8          5.1751    1.0225    0.1356 H         1 <0>         0.1087
     40 H9          4.6081    0.3532   -1.4132 H         1 <0>         0.0529
     41 H10         4.0619    2.9614    1.1523 H         1 <0>         0.0669
     42 H11         4.4946    3.9190   -0.2844 H         1 <0>         0.0524
     43 H12         2.8020    3.8496    0.2622 H         1 <0>         0.0430
     44 H13         1.1307    2.8598   -0.0720 H         1 <0>         0.3934
     45 H14        -0.5862    3.5404    1.2028 H         1 <0>         0.0735
     46 H15        -2.3563    3.3548    1.2267 H         1 <0>         0.0667
     47 H16        -1.3284    2.1992    2.1077 H         1 <0>         0.0697
     48 H17        -2.2891    0.0817    0.3439 H         1 <0>         0.4129
     49 H18        -5.5698   -1.0093    1.0561 H         1 <0>         0.1253
     50 H19        -4.3936    0.1942    1.6709 H         1 <0>         0.1157
     51 H20        -5.8073    1.7366   -1.7726 H         1 <0>         0.1074
     52 H21        -6.6535    0.1746   -1.5618 H         1 <0>         0.0932
     53 H22        -7.5852    2.7021   -2.1407 H         1 <0>         0.1376
     54 H23        -9.4101    4.3407   -2.3269 H         1 <0>         0.1395
     55 H24        -8.3027    2.3762    2.0604 H         1 <0>         0.1668
     56 H25       -10.3791    6.1520    2.0627 H         1 <0>         0.0781
     57 H26       -11.7366    5.3309    2.8761 H         1 <0>         0.1219
     58 H27       -12.4150    6.1861    0.6306 H         1 <0>         0.1208
     59 H28       -12.4833    4.4058    0.6883 H         1 <0>         0.0761
     60 O7          3.9684    0.1620    1.5477 O.co2     1 <0>        -0.7573
@<TRIPOS>BOND
     1    1    2 1
     2    1   36 1
     3    1   37 1
     4    1   38 1
     5    2    3 1
     6    2   39 1
     7    2   40 1
     8    3    4 1
     9    3    5 1
    10    3    6 1
    11    5   41 1
    12    5   42 1
    13    5   43 1
    14    6    7 1
    15    6    8 1
    16    6   10 1
    17    8    9 2
    18    8   60 1
    19   10   11 am
    20   10   44 1
    21   11   12 2
    22   11   13 1
    23   13   14 1
    24   13   15 1
    25   13   16 1
    26   15   45 1
    27   15   46 1
    28   15   47 1
    29   16   17 am
    30   16   48 1
    31   17   18 2
    32   17   19 1
    33   19   20 1
    34   19   25 1
    35   19   21 1
    36   21   22 1
    37   21   49 1
    38   21   50 1
    39   22   23 2
    40   22   24 am
    41   24   25 1
    42   24   26 1
    43   25   51 1
    44   25   52 1
    45   26   31 ar
    46   26   27 ar
    47   27   28 ar
    48   27   53 1
    49   28   29 ar
    50   28   54 1
    51   29   35 1
    52   29   30 ar
    53   30   31 ar
    54   30   32 1
    55   31   55 1
    56   32   33 1
    57   33   34 1
    58   33   56 1
    59   33   57 1
    60   34   35 1
    61   34   58 1
    62   34   59 1
@<TRIPOS>MOLECULE
ZINC20763400
   49    50     0     0     0
SMALL
USER_CHARGES
(2S)-2-[[2-(5-hydroxy-2,2-dimethyl-4-oxo-chroman-7-yl)oxyacetyl]amino]-4-methylsulfanyl-butanoic acid
@<TRIPOS>ATOM
      1 C1         -3.5579   10.7722    6.3346 C.3       1 <0>        -0.1856
      2 C2         -4.6177   10.8358    5.2330 C.3       1 <0>         0.1211
      3 C3         -4.1665   11.8201    4.1440 C.3       1 <0>        -0.1946
      4 C4         -2.8675   11.2868    3.5670 C.2       1 <0>         0.4094
      5 O1         -1.9440   12.0230    3.2871 O.2       1 <0>        -0.4432
      6 C5         -2.7854    9.8360    3.3656 C.ar      1 <0>        -0.3339
      7 C6         -1.7425    9.2753    2.6114 C.ar      1 <0>         0.2864
      8 C7         -1.6780    7.9027    2.4526 C.ar      1 <0>        -0.3557
      9 C8         -2.6476    7.0893    3.0265 C.ar      1 <0>         0.2439
     10 C9         -3.6846    7.6387    3.7694 C.ar      1 <0>        -0.2367
     11 C10        -3.7664    9.0091    3.9434 C.ar      1 <0>         0.2552
     12 O2         -4.7860    9.5400    4.6584 O.3       1 <0>        -0.2953
     13 O3         -2.5774    5.7441    2.8641 O.3       1 <0>        -0.2731
     14 C11        -1.4874    5.2402    2.0896 C.3       1 <0>         0.0398
     15 C12        -1.5740    3.7373    2.0189 C.2       1 <0>         0.5180
     16 O4         -2.4799    3.1552    2.5768 O.2       1 <0>        -0.5223
     17 N1         -0.6447    3.0402    1.3356 N.am      1 <0>        -0.7074
     18 C13        -0.7288    1.5792    1.2668 C.3       1 <0>         0.1137
     19 H1         -1.7949    1.3089    1.2463 H         1 <0>         0.0919
     20 C14        -0.0127    1.0858    0.0080 C.3       1 <0>        -0.0910
     21 C15        -0.7527    1.5927   -1.2315 C.3       1 <0>        -0.0770
     22 S1          0.0964    1.0076   -2.7240 S.3       1 <0>        -0.2712
     23 C16        -0.8924    1.6852   -4.0855 C.3       1 <0>        -0.1238
     24 C17        -0.0738    0.9805    2.4848 C.2       1 <0>         0.4593
     25 O5          0.4134    1.7002    3.3241 O.co2     1 <0>        -0.6266
     26 O6         -0.0315   -0.3525    2.6371 O.co2     1 <0>        -0.7613
     27 O7         -0.8020   10.0732    2.0473 O.3       1 <0>        -0.4769
     28 C18        -5.9458   11.3071    5.8287 C.3       1 <0>        -0.1413
     29 H2         -3.4286   11.7710    6.7771 H         1 <0>         0.0788
     30 H3         -2.6029   10.4348    5.9056 H         1 <0>         0.0649
     31 H4         -3.8803   10.0652    7.1132 H         1 <0>         0.0772
     32 H5         -4.9393   11.8832    3.3638 H         1 <0>         0.1111
     33 H6         -4.0128   12.8142    4.5891 H         1 <0>         0.1086
     34 H7         -0.8755    7.4630    1.8790 H         1 <0>         0.1422
     35 H8         -4.4296    6.9944    4.2124 H         1 <0>         0.1488
     36 H9         -1.5354    5.6585    1.0734 H         1 <0>         0.0925
     37 H10        -0.5371    5.5310    2.5612 H         1 <0>         0.0986
     38 H11         0.1769    3.5683    0.8296 H         1 <0>         0.4099
     39 H12         1.0193    1.4665    0.0002 H         1 <0>         0.0740
     40 H13         0.0022   -0.0141    0.0019 H         1 <0>         0.0992
     41 H14        -1.7847    1.2120   -1.2236 H         1 <0>         0.0810
     42 H15        -0.7676    2.6926   -1.2254 H         1 <0>         0.0784
     43 H16        -0.4510    1.3808   -5.0460 H         1 <0>         0.0990
     44 H17        -0.9043    2.7831   -4.0189 H         1 <0>         0.0732
     45 H18        -1.9214    1.3025   -4.0171 H         1 <0>         0.0746
     46 H19         0.0134    9.6296    1.4571 H         1 <0>         0.4367
     47 H20        -6.7074   11.3527    5.0363 H         1 <0>         0.0714
     48 H21        -5.8156   12.3062    6.2701 H         1 <0>         0.0831
     49 H22        -6.2691   10.6012    6.6079 H         1 <0>         0.0750
@<TRIPOS>BOND
     1    1    2 1
     2    1   29 1
     3    1   30 1
     4    1   31 1
     5    2   12 1
     6    2    3 1
     7    2   28 1
     8    3    4 1
     9    3   32 1
    10    3   33 1
    11    4    5 2
    12    4    6 1
    13    6   11 ar
    14    6    7 ar
    15    7    8 ar
    16    7   27 1
    17    8    9 ar
    18    8   34 1
    19    9   10 ar
    20    9   13 1
    21   10   11 ar
    22   10   35 1
    23   11   12 1
    24   13   14 1
    25   14   15 1
    26   14   36 1
    27   14   37 1
    28   15   16 2
    29   15   17 am
    30   17   18 1
    31   17   38 1
    32   18   19 1
    33   18   20 1
    34   18   24 1
    35   20   21 1
    36   20   39 1
    37   20   40 1
    38   21   22 1
    39   21   41 1
    40   21   42 1
    41   22   23 1
    42   23   43 1
    43   23   44 1
    44   23   45 1
    45   24   25 2
    46   24   26 1
    47   27   46 1
    48   28   47 1
    49   28   48 1
    50   28   49 1
@<TRIPOS>MOLECULE
ZINC39482820
   52    54     0     0     0
SMALL
USER_CHARGES

@<TRIPOS>ATOM
      1 C1         -0.0187    1.5258    0.0104 C.3       1 <0>        -0.1495
      2 C2          0.0021   -0.0041    0.0020 C.3       1 <0>         0.0615
      3 O1          0.6709   -0.4649   -1.1737 O.3       1 <0>        -0.3834
      4 C3          0.7457   -1.8880   -1.2798 C.3       1 <0>         0.2377
      5 H1         -0.2436   -2.3171   -1.1208 H         1 <0>         0.0742
      6 C4          1.2511   -2.2709   -2.6748 C.3       1 <0>         0.1199
      7 N1          1.4624   -3.7260   -2.7121 N.pl3     1 <0>        -0.6644
      8 C5          2.2713   -4.3392   -1.6476 C.3       1 <0>         0.1038
      9 C6          1.7257   -3.8748   -0.2930 C.3       1 <0>         0.0440
     10 N2          1.6737   -2.4070   -0.2662 N.3       1 <0>        -0.7009
     11 C7          0.9079   -4.5068   -3.7335 C.ar      1 <0>         0.1016
     12 C8          1.6240   -4.7387   -4.8981 C.ar      1 <0>         0.0063
     13 C9          1.0747   -5.5105   -5.9053 C.ar      1 <0>        -0.7349
     14 C10        -0.1882   -6.0528   -5.7555 C.ar      1 <0>         0.0144
     15 C11        -0.9092   -5.8266   -4.5976 C.ar      1 <0>        -0.1935
     16 C12        -0.3639   -5.0583   -3.5802 C.ar      1 <0>         0.2607
     17 N3         -1.0901   -4.8324   -2.4046 N.pl3     1 <0>        -1.0693
     18 S1         -2.0721   -6.0193   -1.7970 S.o2      1 <0>         2.7634
     19 O2         -2.7710   -5.4467   -0.6568 O.2       1 <0>        -1.0692
     20 O3         -2.9881   -6.3962   -2.8623 O.2       1 <0>        -1.0683
     21 O4         -1.2088   -7.1231   -1.4068 O.3       1 <0>        -1.0678
     22 S2          1.9866   -5.8032   -7.3843 S.o2      1 <0>         2.6805
     23 O5          1.0346   -6.1020   -8.3960 O.2       1 <0>        -0.9569
     24 O6          2.9174   -4.7363   -7.5053 O.2       1 <0>        -0.9383
     25 O7          2.8024   -7.0695   -7.1668 O.3       1 <0>        -0.6625
     26 C13         2.0714   -8.2139   -7.2201 C.ar      1 <0>         0.0629
     27 C14         1.4918   -8.7225   -6.0668 C.ar      1 <0>        -0.1147
     28 C15         0.7488   -9.8857   -6.1237 C.ar      1 <0>        -0.0992
     29 C16         0.5829  -10.5432   -7.3287 C.ar      1 <0>        -0.1013
     30 C17         1.1599  -10.0386   -8.4794 C.ar      1 <0>        -0.1066
     31 C18         1.8987   -8.8724   -8.4289 C.ar      1 <0>        -0.0960
     32 H2          1.0039    1.9031    0.0027 H         1 <0>         0.0599
     33 H3         -0.5459    1.8868   -0.8726 H         1 <0>         0.0595
     34 H4         -0.5289    1.8773    0.9072 H         1 <0>         0.0688
     35 H5          0.5293   -0.3651    0.8851 H         1 <0>         0.0611
     36 H6         -1.0205   -0.3814    0.0098 H         1 <0>         0.0469
     37 H7          0.5100   -1.9893   -3.4228 H         1 <0>         0.0815
     38 H8          2.1920   -1.7590   -2.8767 H         1 <0>         0.0632
     39 H9          2.2046   -5.4249   -1.7165 H         1 <0>         0.0828
     40 H10         3.3102   -4.0260   -1.7508 H         1 <0>         0.0540
     41 H11         0.7230   -4.2766   -0.1477 H         1 <0>         0.0813
     42 H12         2.3794   -4.2302    0.5035 H         1 <0>         0.0877
     43 H13         2.5944   -2.0108   -0.3821 H         1 <0>         0.3429
     44 H14         2.6107   -4.3163   -5.0185 H         1 <0>         0.1388
     45 H15        -0.6128   -6.6546   -6.5454 H         1 <0>         0.1409
     46 H16        -1.8956   -6.2515   -4.4840 H         1 <0>         0.1771
     47 H17        -1.0180   -3.9806   -1.9461 H         1 <0>         0.4059
     48 H18         1.6217   -8.2097   -5.1253 H         1 <0>         0.1432
     49 H19         0.2974  -10.2821   -5.2262 H         1 <0>         0.1420
     50 H20         0.0019  -11.4527   -7.3711 H         1 <0>         0.1342
     51 H21         1.0291  -10.5542   -9.4194 H         1 <0>         0.1368
     52 H22         2.3455   -8.4763   -9.3288 H         1 <0>         0.1374
@<TRIPOS>BOND
     1    1    2 1
     2    1   32 1
     3    1   33 1
     4    1   34 1
     5    2    3 1
     6    2   35 1
     7    2   36 1
     8    3    4 1
     9    4    5 1
    10    4   10 1
    11    4    6 1
    12    6    7 1
    13    6   37 1
    14    6   38 1
    15    7    8 1
    16    7   11 1
    17    8    9 1
    18    8   39 1
    19    8   40 1
    20    9   10 1
    21    9   41 1
    22    9   42 1
    23   10   43 1
    24   11   16 ar
    25   11   12 ar
    26   12   13 ar
    27   12   44 1
    28   13   14 ar
    29   13   22 1
    30   14   15 ar
    31   14   45 1
    32   15   16 ar
    33   15   46 1
    34   16   17 1
    35   17   18 1
    36   17   47 1
    37   18   19 2
    38   18   20 2
    39   18   21 1
    40   22   23 2
    41   22   24 2
    42   22   25 1
    43   25   26 1
    44   26   31 ar
    45   26   27 ar
    46   27   28 ar
    47   27   48 1
    48   28   29 ar
    49   28   49 1
    50   29   30 ar
    51   29   50 1
    52   30   31 ar
    53   30   51 1
    54   31   52 1
@<TRIPOS>MOLECULE
ZINC58244454
   56    59     0     0     0
SMALL
USER_CHARGES

@<TRIPOS>ATOM
      1 C1          0.0082    1.3132   -0.2989 C.ar      1 <0>        -0.0704
      2 C2          1.1870    2.0308   -0.3231 C.ar      1 <0>        -0.1724
      3 C3          2.3915    1.4056    0.0035 C.ar      1 <0>        -0.0981
      4 C4          2.3986    0.0555    0.3541 C.ar      1 <0>        -0.1558
      5 C5          1.2091   -0.6564    0.3758 C.ar      1 <0>         0.2757
      6 C6          0.0149   -0.0244    0.0484 C.ar      1 <0>        -0.2415
      7 N1          1.2107   -2.0089    0.7259 N.2       1 <0>        -1.0921
      8 S1         -0.2101   -2.8591    0.7518 S.o2      1 <0>         2.6318
      9 O1         -0.9953   -2.3060    1.7991 O.2       1 <0>        -1.0362
     10 O2         -0.6690   -2.9243   -0.5915 O.2       1 <0>        -1.0295
     11 C7          0.1789   -4.5093    1.2317 C.2       1 <0>        -0.6926
     12 C8          0.5142   -5.5595    0.3714 C.2       1 <0>        -0.0074
     13 C9          0.7412   -6.6697    1.1568 C.2       1 <0>        -0.0797
     14 N2          0.5466   -6.2972    2.4676 N.pl3     1 <0>        -0.5425
     15 H1          0.6378   -6.8769    3.2400 H         1 <0>         0.4149
     16 C10         0.2120   -4.9842    2.4998 C.2       1 <0>         0.1365
     17 C11         1.1201   -8.0048    0.6820 C.2       1 <0>         0.6116
     18 O3          1.2617   -8.2094   -0.5092 O.2       1 <0>        -0.5239
     19 N3          1.3114   -9.0049    1.5650 N.am      1 <0>        -0.6262
     20 C12         1.1684   -8.8985    3.0243 C.3       1 <0>         0.0850
     21 C13         1.5094  -10.2806    3.6201 C.3       1 <0>        -0.1290
     22 C14         2.3735  -10.9342    2.5095 C.3       1 <0>        -0.1337
     23 C15         1.6925  -10.3883    1.2269 C.3       1 <0>         0.1067
     24 C16         3.6558    2.1718   -0.0227 C.2       1 <0>         0.5725
     25 O4          3.6883    3.3059    0.4135 O.2       1 <0>        -0.5464
     26 N4          4.7722    1.6128   -0.5301 N.am      1 <0>        -0.6075
     27 C17         6.0638    2.3076   -0.4422 C.3       1 <0>         0.1085
     28 C18         6.6701    2.4008   -1.8459 C.3       1 <0>        -0.1301
     29 C19         6.7504    0.9999   -2.4567 C.3       1 <0>        -0.1127
     30 C20         5.3423    0.4124   -2.5767 C.3       1 <0>         0.0916
     31 H2          4.7272    1.0655   -3.1958 H         1 <0>         0.0587
     32 C21         4.7220    0.2942   -1.1762 C.3       1 <0>         0.0659
     33 O5          5.4153   -0.8828   -3.1759 O.3       1 <0>        -0.5658
     34 H3         -0.9232    1.7999   -0.5480 H         1 <0>         0.1098
     35 H4          1.1775    3.0759   -0.5951 H         1 <0>         0.1101
     36 H5          3.3275   -0.4336    0.6074 H         1 <0>         0.1199
     37 H6         -0.9108   -0.5806    0.0659 H         1 <0>         0.1016
     38 H7          0.5822   -5.5103   -0.7053 H         1 <0>         0.1597
     39 H8          0.0030   -4.4109    3.3909 H         1 <0>         0.1874
     40 H9          1.8580   -8.1479    3.4107 H         1 <0>         0.0700
     41 H10         0.1432   -8.6283    3.2776 H         1 <0>         0.0694
     42 H11         2.0823  -10.1729    4.5412 H         1 <0>         0.0859
     43 H12         0.6026  -10.8599    3.7943 H         1 <0>         0.0803
     44 H13         3.4102  -10.6042    2.5761 H         1 <0>         0.0785
     45 H14         2.3076  -12.0213    2.5522 H         1 <0>         0.0868
     46 H15         0.8078  -10.9770    0.9844 H         1 <0>         0.0698
     47 H16         2.3943  -10.3954    0.3930 H         1 <0>         0.0824
     48 H17         5.9129    3.3102   -0.0420 H         1 <0>         0.0936
     49 H18         6.7356    1.7491    0.2096 H         1 <0>         0.0661
     50 H19         6.0425    3.0352   -2.4719 H         1 <0>         0.0684
     51 H20         7.6710    2.8278   -1.7823 H         1 <0>         0.0790
     52 H21         7.2041    1.0604   -3.4459 H         1 <0>         0.0693
     53 H22         7.3578    0.3593   -1.8173 H         1 <0>         0.0707
     54 H23         5.2865   -0.4252   -0.5831 H         1 <0>         0.0763
     55 H24         3.6854   -0.0321   -1.2606 H         1 <0>         0.1136
     56 H25         4.5572   -1.3155   -3.2832 H         1 <0>         0.3855
@<TRIPOS>BOND
     1    1    6 ar
     2    1    2 ar
     3    1   34 1
     4    2    3 ar
     5    2   35 1
     6    3    4 ar
     7    3   24 1
     8    4    5 ar
     9    4   36 1
    10    5    6 ar
    11    5    7 1
    12    6   37 1
    13    7    8 1
    14    8    9 2
    15    8   10 2
    16    8   11 1
    17   11   16 2
    18   11   12 1
    19   12   13 2
    20   12   38 1
    21   13   14 1
    22   13   17 1
    23   14   15 1
    24   14   16 1
    25   16   39 1
    26   17   18 2
    27   17   19 am
    28   19   23 1
    29   19   20 1
    30   20   21 1
    31   20   40 1
    32   20   41 1
    33   21   22 1
    34   21   42 1
    35   21   43 1
    36   22   23 1
    37   22   44 1
    38   22   45 1
    39   23   46 1
    40   23   47 1
    41   24   25 2
    42   24   26 am
    43   26   32 1
    44   26   27 1
    45   27   28 1
    46   27   48 1
    47   27   49 1
    48   28   29 1
    49   28   50 1
    50   28   51 1
    51   29   30 1
    52   29   52 1
    53   29   53 1
    54   30   31 1
    55   30   32 1
    56   30   33 1
    57   32   54 1
    58   32   55 1
    59   33   56 1
@<TRIPOS>MOLECULE
ZINC66587382
   37    38     0     0     0
SMALL
USER_CHARGES

@<TRIPOS>ATOM
      1 C1         -0.0180    1.4606    0.0100 C.3       1 <0>         0.0651
      2 N1          0.0010   -0.0042    0.0021 N.pl3     1 <0>        -0.4092
      3 C2         -0.0899   -0.7900   -1.0984 C.2       1 <0>         0.1331
      4 C3         -0.0367   -2.0882   -0.7155 C.2       1 <0>        -0.6902
      5 C4          0.0924   -2.1199    0.6765 C.2       1 <0>        -0.0442
      6 C5          0.1200   -0.8116    1.1106 C.2       1 <0>        -0.0796
      7 C6          0.2492   -0.3619    2.5008 C.2       1 <0>         0.6023
      8 O1          0.1697    0.8229    2.7670 O.2       1 <0>        -0.5591
      9 N2          0.4559   -1.2609    3.4834 N.am      1 <0>        -0.8429
     10 S1         -0.1160   -3.4885   -1.7821 S.o2      1 <0>         2.6330
     11 O2         -0.5813   -4.5745   -0.9926 O.2       1 <0>        -1.0304
     12 O3         -0.7840   -3.0630   -2.9619 O.2       1 <0>        -1.0350
     13 N3          1.4371   -3.8559   -2.2240 N.2       1 <0>        -1.0897
     14 C7          1.6840   -4.9341   -3.0769 C.ar      1 <0>         0.2647
     15 C8          0.6273   -5.6958   -3.5601 C.ar      1 <0>        -0.2093
     16 C9          0.8748   -6.7607   -4.4035 C.ar      1 <0>        -0.0801
     17 C10         2.1730   -7.0697   -4.7670 C.ar      1 <0>        -0.1282
     18 C11         3.2270   -6.3140   -4.2876 C.ar      1 <0>        -0.6022
     19 C12         2.9859   -5.2437   -3.4485 C.ar      1 <0>        -0.0746
     20 S2          4.8790   -6.7128   -4.7530 S.o2      1 <0>         2.4709
     21 O4          5.6838   -6.2213   -3.6901 O.2       1 <0>        -0.8976
     22 O5          4.8457   -8.1011   -5.0542 O.2       1 <0>        -0.9032
     23 C13         5.1827   -5.7532   -6.2621 C.3       1 <0>        -0.2142
     24 F1          4.2627   -6.1288   -7.2468 F         1 <0>        -0.1662
     25 F2          5.0381   -4.3896   -5.9846 F         1 <0>        -0.1625
     26 H1          1.0049    1.8372    0.0119 H         1 <0>         0.0783
     27 H2         -0.5365    1.8221   -0.8780 H         1 <0>         0.0862
     28 H3         -0.5364    1.8125    0.9019 H         1 <0>         0.1004
     29 H4         -0.1886   -0.4385   -2.1148 H         1 <0>         0.1855
     30 H5          0.1611   -3.0027    1.2948 H         1 <0>         0.1554
     31 H6          0.5924   -2.1960    3.2644 H         1 <0>         0.4073
     32 H7          0.4683   -0.9729    4.4096 H         1 <0>         0.4073
     33 H8         -0.3866   -5.4554   -3.2760 H         1 <0>         0.1071
     34 H9          0.0538   -7.3532   -4.7794 H         1 <0>         0.1163
     35 H10         2.3639   -7.9033   -5.4265 H         1 <0>         0.1249
     36 H11         3.8093   -4.6509   -3.0783 H         1 <0>         0.1353
     37 H12         6.1948   -5.9462   -6.6179 H         1 <0>         0.1452
@<TRIPOS>BOND
     1    1    2 1
     2    1   26 1
     3    1   27 1
     4    1   28 1
     5    2    6 1
     6    2    3 1
     7    3    4 2
     8    3   29 1
     9    4    5 1
    10    4   10 1
    11    5    6 2
    12    5   30 1
    13    6    7 1
    14    7    8 2
    15    7    9 am
    16    9   31 1
    17    9   32 1
    18   10   11 2
    19   10   12 2
    20   10   13 1
    21   13   14 1
    22   14   19 ar
    23   14   15 ar
    24   15   16 ar
    25   15   33 1
    26   16   17 ar
    27   16   34 1
    28   17   18 ar
    29   17   35 1
    30   18   19 ar
    31   18   20 1
    32   19   36 1
    33   20   21 2
    34   20   22 2
    35   20   23 1
    36   23   24 1
    37   23   25 1
    38   23   37 1
@<TRIPOS>MOLECULE
ZINC21012265
   31    31     0     0     0
SMALL
USER_CHARGES
(2S,3R)-3-hydroxy-2-[(3-nitrophenyl)sulfonylamino]butanoic acid
@<TRIPOS>ATOM
      1 C1         -0.0187    1.5258    0.0104 C.3       1 <0>        -0.1423
      2 C2          0.0021   -0.0041    0.0020 C.3       1 <0>         0.1341
      3 H1         -1.0162   -0.4166   -0.0510 H         1 <0>         0.0677
      4 C3          0.7421   -0.5109    1.2415 C.3       1 <0>         0.0718
      5 H2          0.2129   -0.2244    2.1623 H         1 <0>         0.0937
      6 C4          0.8700   -2.0108    1.1719 C.2       1 <0>         0.4439
      7 O1          1.9637   -2.5243    1.1664 O.co2     1 <0>        -0.6216
      8 O2         -0.2311   -2.7765    1.1160 O.co2     1 <0>        -0.7547
      9 N1          2.0766    0.0911    1.2937 N.pl3     1 <0>        -1.0775
     10 S1          2.7544    0.4768    2.7546 S.o2      1 <0>         2.6959
     11 O3          4.0421    1.0097    2.4769 O.2       1 <0>        -0.9647
     12 O4          1.7705    1.2011    3.4803 O.2       1 <0>        -0.9576
     13 C5          3.0115   -1.0337    3.6247 C.ar      1 <0>        -0.6621
     14 C6          4.2043   -1.7183    3.4837 C.ar      1 <0>         0.0456
     15 C7          4.4061   -2.9030    4.1665 C.ar      1 <0>        -0.1351
     16 C8          3.4151   -3.4033    4.9905 C.ar      1 <0>        -0.0083
     17 C9          2.2226   -2.7189    5.1315 C.ar      1 <0>        -0.0609
     18 C10         2.0228   -1.5312    4.4525 C.ar      1 <0>         0.0511
     19 N2          1.1618   -3.2543    6.0141 N.pl3     1 <0>         0.0338
     20 O5          1.3397   -4.2981    6.6161 O.2       1 <0>        -0.1664
     21 O6          0.1109   -2.6512    6.1383 O.3       1 <0>        -0.1541
     22 O7          0.6709   -0.4649   -1.1737 O.3       1 <0>        -0.6020
     23 H3         -0.5507    1.8901   -0.8808 H         1 <0>         0.0568
     24 H4          1.0133    1.9066    0.0026 H         1 <0>         0.0635
     25 H5         -0.5336    1.8805    0.9154 H         1 <0>         0.0700
     26 H6          2.6953    0.1367    0.3853 H         1 <0>         0.4435
     27 H7          4.9786   -1.3273    2.8403 H         1 <0>         0.1543
     28 H8          5.3380   -3.4376    4.0566 H         1 <0>         0.1528
     29 H9          3.5728   -4.3288    5.5244 H         1 <0>         0.1560
     30 H10         1.0927   -0.9941    4.5661 H         1 <0>         0.1615
     31 H11         0.7844   -1.5440   -1.3547 H         1 <0>         0.4113
@<TRIPOS>BOND
     1    1    2 1
     2    1   23 1
     3    1   24 1
     4    1   25 1
     5    2    3 1
     6    2    4 1
     7    2   22 1
     8    4    5 1
     9    4    6 1
    10    4    9 1
    11    6    7 2
    12    6    8 1
    13    9   10 1
    14    9   26 1
    15   10   11 2
    16   10   12 2
    17   10   13 1
    18   13   18 ar
    19   13   14 ar
    20   14   15 ar
    21   14   27 1
    22   15   16 ar
    23   15   28 1
    24   16   17 ar
    25   16   29 1
    26   17   18 ar
    27   17   19 1
    28   18   30 1
    29   19   20 2
    30   19   21 1
    31   22   31 1
@<TRIPOS>MOLECULE
ZINC37455604
   41    41     0     0     0
SMALL
USER_CHARGES

@<TRIPOS>ATOM
      1 C1         -0.0173    1.4248    0.0099 C.3       1 <0>         0.0303
      2 O1          0.0021   -0.0041    0.0020 O.3       1 <0>        -0.3782
      3 C2          0.6518   -0.5703   -1.1379 C.3       1 <0>         0.0777
      4 H1          0.5612    0.0866   -2.0030 H         1 <0>         0.0857
      5 C3          0.0932   -1.9834   -1.4516 C.3       1 <0>        -0.1030
      6 C4          1.2743   -2.6707   -2.1686 C.3       1 <0>         0.0696
      7 H2          1.3375   -3.7147   -1.8617 H         1 <0>         0.0714
      8 N1          2.4985   -1.9585   -1.7740 N.am      1 <0>        -0.5898
      9 C5          2.1377   -0.8832   -0.8315 C.3       1 <0>         0.0859
     10 C6          3.7447   -2.2418   -2.2022 C.2       1 <0>         0.5185
     11 O2          3.9256   -3.1536   -2.9812 O.2       1 <0>        -0.4904
     12 C7          4.9132   -1.4255   -1.7131 C.3       1 <0>         0.1666
     13 H3          4.6277   -0.3747   -1.6652 H         1 <0>         0.1047
     14 C8          5.3238   -1.9065   -0.3200 C.3       1 <0>        -0.1184
     15 C9          6.4269   -0.9990    0.2284 C.3       1 <0>        -0.0735
     16 S1          6.9137   -1.5693    1.8801 S.3       1 <0>        -0.2618
     17 C10         8.2104   -0.4043    2.3821 C.3       1 <0>        -0.1220
     18 N2          6.0398   -1.5838   -2.6361 N.am      1 <0>        -0.7327
     19 C11         6.5650   -2.8055   -2.8552 C.2       1 <0>         0.7103
     20 O3          6.1038   -3.7764   -2.2867 O.2       1 <0>        -0.5586
     21 N3          7.6015   -2.9511   -3.7043 N.am      1 <0>        -0.8715
     22 C12         1.0869   -2.5860   -3.6615 C.2       1 <0>         0.5014
     23 O4          1.5127   -1.6226   -4.2756 O.co2     1 <0>        -0.6876
     24 O5          0.5097   -3.4808   -4.2552 O.co2     1 <0>        -0.6951
     25 H4          1.0053    1.8021    0.0021 H         1 <0>         0.0396
     26 H5         -0.5445    1.7859   -0.8732 H         1 <0>         0.0421
     27 H6         -0.5275    1.7763    0.9067 H         1 <0>         0.0828
     28 H7         -0.1595   -2.5111   -0.5319 H         1 <0>         0.0769
     29 H8         -0.7728   -1.9182   -2.1104 H         1 <0>         0.0831
     30 H9          2.7548   -0.0019   -1.0062 H         1 <0>         0.0663
     31 H10         2.2487   -1.2273    0.1967 H         1 <0>         0.0720
     32 H11         4.4610   -1.8723    0.3452 H         1 <0>         0.0841
     33 H12         5.6934   -2.9300   -0.3832 H         1 <0>         0.1064
     34 H13         7.2897   -1.0333   -0.4368 H         1 <0>         0.0808
     35 H14         6.0573    0.0245    0.2916 H         1 <0>         0.0792
     36 H15         8.5712   -0.6685    3.3762 H         1 <0>         0.0997
     37 H16         9.0358   -0.4511    1.6717 H         1 <0>         0.0735
     38 H17         7.8034    0.6067    2.4001 H         1 <0>         0.0744
     39 H18         6.4078   -0.8093   -3.0896 H         1 <0>         0.3970
     40 H19         7.9694   -2.1766   -4.1578 H         1 <0>         0.3908
     41 H20         7.9795   -3.8304   -3.8620 H         1 <0>         0.4121
@<TRIPOS>BOND
     1    1    2 1
     2    1   25 1
     3    1   26 1
     4    1   27 1
     5    2    3 1
     6    3    4 1
     7    3    9 1
     8    3    5 1
     9    5    6 1
    10    5   28 1
    11    5   29 1
    12    6    7 1
    13    6    8 1
    14    6   22 1
    15    8    9 1
    16    8   10 am
    17    9   30 1
    18    9   31 1
    19   10   11 2
    20   10   12 1
    21   12   13 1
    22   12   14 1
    23   12   18 1
    24   14   15 1
    25   14   32 1
    26   14   33 1
    27   15   16 1
    28   15   34 1
    29   15   35 1
    30   16   17 1
    31   17   36 1
    32   17   37 1
    33   17   38 1
    34   18   19 am
    35   18   39 1
    36   19   20 2
    37   19   21 am
    38   21   40 1
    39   21   41 1
    40   22   23 2
    41   22   24 1
@<TRIPOS>MOLECULE
ZINC40697494
   36    37     0     0     0
SMALL
USER_CHARGES

@<TRIPOS>ATOM
      1 C1         -0.0167    1.3840    0.0097 C.2       1 <0>        -0.0617
      2 C2          1.2075    2.0004    0.0013 C.2       1 <0>        -0.2250
      3 C3          2.3392    1.2187   -0.0137 C.2       1 <0>        -0.0037
      4 S1          1.7496   -0.3544   -0.0165 S.3       1 <0>         0.3096
      5 C4          0.0021   -0.0041    0.0020 C.2       1 <0>        -0.2726
      6 C5         -1.1220   -0.9380    0.0077 C.2       1 <0>         0.6032
      7 O1         -2.2641   -0.5161    0.0209 O.2       1 <0>        -0.5369
      8 N1         -0.8945   -2.2664   -0.0016 N.am      1 <0>        -0.6894
      9 C6         -2.0213   -3.2027    0.0042 C.3       1 <0>         0.0783
     10 H1         -2.8330   -2.7905    0.6036 H         1 <0>         0.0879
     11 C7         -1.5723   -4.5374    0.6024 C.3       1 <0>        -0.1097
     12 C8         -1.2038   -4.3385    2.0740 C.3       1 <0>         0.0764
     13 O2         -0.7845   -5.5851    2.6327 O.3       1 <0>        -0.5748
     14 C9         -2.5003   -3.4208   -1.4079 C.2       1 <0>         0.4935
     15 O3         -1.8461   -2.9979   -2.3458 O.co2     1 <0>        -0.6829
     16 O4         -3.5421   -4.0203   -1.6125 O.co2     1 <0>        -0.6941
     17 N2          3.6650    1.6345   -0.0242 N.am      1 <0>        -0.6145
     18 C10         4.6572    0.7225   -0.0385 C.2       1 <0>         0.5317
     19 O5          4.3928   -0.4612   -0.0424 O.2       1 <0>        -0.4993
     20 C11         6.0951    1.1734   -0.0498 C.3       1 <0>        -0.1937
     21 C12         6.9051    0.9196   -1.3228 C.3       1 <0>        -0.1499
     22 C13         7.1751    0.0899   -0.0660 C.3       1 <0>        -0.1427
     23 H2         -0.9400    1.9442    0.0258 H         1 <0>         0.1479
     24 H3          1.2820    3.0778    0.0060 H         1 <0>         0.1341
     25 H4          0.0153   -2.6026   -0.0121 H         1 <0>         0.3896
     26 H5         -2.3837   -5.2612    0.5256 H         1 <0>         0.0897
     27 H6         -0.7037   -4.9061    0.0569 H         1 <0>         0.0697
     28 H7         -0.3925   -3.6147    2.1507 H         1 <0>         0.0427
     29 H8         -2.0725   -3.9697    2.6194 H         1 <0>         0.0451
     30 H9         -0.5351   -5.5340    3.5655 H         1 <0>         0.3720
     31 H10         3.8764    2.5812   -0.0211 H         1 <0>         0.4191
     32 H11         6.3059    2.0860    0.5077 H         1 <0>         0.1296
     33 H12         6.3979    0.4264   -2.1520 H         1 <0>         0.1034
     34 H13         7.6490    1.6653   -1.6030 H         1 <0>         0.1082
     35 H14         8.0968    0.2898    0.4806 H         1 <0>         0.1069
     36 H15         6.8457   -0.9491   -0.0684 H         1 <0>         0.1121
@<TRIPOS>BOND
     1    1    5 2
     2    1    2 1
     3    1   23 1
     4    2    3 2
     5    2   24 1
     6    3    4 1
     7    3   17 1
     8    4    5 1
     9    5    6 1
    10    6    7 2
    11    6    8 am
    12    8    9 1
    13    8   25 1
    14    9   10 1
    15    9   11 1
    16    9   14 1
    17   11   12 1
    18   11   26 1
    19   11   27 1
    20   12   13 1
    21   12   28 1
    22   12   29 1
    23   13   30 1
    24   14   15 2
    25   14   16 1
    26   17   18 am
    27   17   31 1
    28   18   19 2
    29   18   20 1
    30   20   22 1
    31   20   21 1
    32   20   32 1
    33   21   22 1
    34   21   33 1
    35   21   34 1
    36   22   35 1
    37   22   36 1
@<TRIPOS>MOLECULE
ZINC50603925
   39    40     0     0     0
SMALL
USER_CHARGES

@<TRIPOS>ATOM
      1 C1         -0.0187    1.5258    0.0104 C.3       1 <0>        -0.1400
      2 C2          0.0021   -0.0041    0.0020 C.3       1 <0>         0.1486
      3 C3          0.7421   -0.5109    1.2415 C.3       1 <0>        -0.1405
      4 C4          1.2220    0.5316    2.2533 C.3       1 <0>        -0.1964
      5 C5          2.2328   -0.1860    1.3565 C.3       1 <0>        -0.1532
      6 C6          0.7074   -0.4901   -1.2379 C.2       1 <0>         0.5055
      7 O1          1.8687   -0.1786   -1.4402 O.co2     1 <0>        -0.6959
      8 O2          0.1168   -1.1947   -2.0386 O.co2     1 <0>        -0.6762
      9 N1         -1.3723   -0.5112    0.0124 N.am      1 <0>        -0.7178
     10 C7         -2.2162   -0.1915   -0.9887 C.2       1 <0>         0.7137
     11 O3         -1.8367    0.5178   -1.9005 O.2       1 <0>        -0.5660
     12 N2         -3.4806   -0.6580   -0.9791 N.am      1 <0>        -0.7598
     13 C8         -4.3978   -0.3105   -2.0673 C.3       1 <0>         0.1540
     14 C9         -5.7583   -0.9636   -1.8157 C.3       1 <0>        -0.1043
     15 H1         -5.6239   -2.0357   -1.6721 H         1 <0>         0.1015
     16 C10        -6.3912   -0.3548   -0.5534 C.3       1 <0>        -0.1279
     17 C11        -7.8815   -0.7966   -0.4975 C.3       1 <0>        -0.5739
     18 S1         -8.3487   -0.6320   -2.2722 S.o2      1 <0>         2.3693
     19 O4         -9.0968   -1.7758   -2.6613 O.2       1 <0>        -0.9429
     20 O5         -8.8889    0.6641   -2.4898 O.2       1 <0>        -0.9384
     21 C12        -6.6788   -0.7200   -3.0359 C.3       1 <0>        -0.5711
     22 H2          1.0039    1.9031    0.0027 H         1 <0>         0.0617
     23 H3         -0.5459    1.8868   -0.8726 H         1 <0>         0.0695
     24 H4         -0.5289    1.8773    0.9072 H         1 <0>         0.0381
     25 H5          0.4050   -1.4719    1.6301 H         1 <0>         0.0932
     26 H6          1.0106    1.5786    2.0358 H         1 <0>         0.0966
     27 H7          1.2007    0.2567    3.3078 H         1 <0>         0.0814
     28 H8          2.8763   -0.9331    1.8210 H         1 <0>         0.0819
     29 H9          2.6863    0.3888    0.5490 H         1 <0>         0.1193
     30 H10        -1.6750   -1.0770    0.7398 H         1 <0>         0.3793
     31 H11        -3.7833   -1.2238   -0.2517 H         1 <0>         0.3866
     32 H12        -4.5169    0.7722   -2.1104 H         1 <0>         0.0684
     33 H13        -3.9919   -0.6692   -3.0132 H         1 <0>         0.0740
     34 H14        -5.8670   -0.7152    0.3317 H         1 <0>         0.1011
     35 H15        -6.3310    0.7326   -0.5992 H         1 <0>         0.0930
     36 H16        -7.9743   -1.8287   -0.1596 H         1 <0>         0.1380
     37 H17        -8.4686   -0.1247    0.1285 H         1 <0>         0.1396
     38 H18        -6.4283    0.2201   -3.5274 H         1 <0>         0.1450
     39 H19        -6.6188   -1.5521   -3.7375 H         1 <0>         0.1453
@<TRIPOS>BOND
     1    1    2 1
     2    1   22 1
     3    1   23 1
     4    1   24 1
     5    2    3 1
     6    2    6 1
     7    2    9 1
     8    3    5 1
     9    3    4 1
    10    3   25 1
    11    4    5 1
    12    4   26 1
    13    4   27 1
    14    5   28 1
    15    5   29 1
    16    6    7 2
    17    6    8 1
    18    9   10 am
    19    9   30 1
    20   10   11 2
    21   10   12 am
    22   12   13 1
    23   12   31 1
    24   13   14 1
    25   13   32 1
    26   13   33 1
    27   14   15 1
    28   14   21 1
    29   14   16 1
    30   16   17 1
    31   16   34 1
    32   16   35 1
    33   17   18 1
    34   17   36 1
    35   17   37 1
    36   18   19 2
    37   18   20 2
    38   18   21 1
    39   21   38 1
    40   21   39 1
@<TRIPOS>MOLECULE
ZINC15953217
   30    31     0     0     0
SMALL
USER_CHARGES

@<TRIPOS>ATOM
      1 C1         -0.0229    1.8357    0.0121 C.3       1 <0>         0.0046
      2 C2          1.4704    2.1248   -0.0006 C.2       1 <0>         0.2710
      3 N1          1.9468    3.3274    0.0017 N.2       1 <0>        -0.2905
      4 N2          3.3328    3.5318   -0.0104 N.2       1 <0>        -0.4663
      5 C3          3.8345    4.7982   -0.0080 C.2       1 <0>         0.4742
      6 N3          3.1661    5.9454    0.0109 N.2       1 <0>        -0.7098
      7 C4          3.7239    7.1244    0.0118 C.2       1 <0>         0.5234
      8 O1          3.0733    8.1513    0.0298 O.2       1 <0>        -0.5426
      9 C5          5.2476    7.1253   -0.0108 C.3       1 <0>        -0.1090
     10 H1          5.6588    7.5876    0.8866 H         1 <0>         0.1325
     11 S1          5.5481    5.3076   -0.0215 S.3       1 <0>        -0.2036
     12 C6          5.7873    7.7951   -1.2761 C.3       1 <0>        -0.1026
     13 C7          7.2897    7.8821   -1.1966 C.2       1 <0>         0.5167
     14 O2          7.8713    7.4511   -0.2241 O.2       1 <0>        -0.4523
     15 N4          7.9868    8.4392   -2.2067 N.am      1 <0>        -0.6918
     16 C8          9.3305    8.5170   -2.1356 C.2       1 <0>         0.6954
     17 O3          9.9135    8.0849   -1.1607 O.2       1 <0>        -0.5337
     18 N5         10.0276    9.0740   -3.1457 N.am      1 <0>        -0.8603
     19 N6          2.2679    1.0202   -0.0141 N.am      1 <0>        -0.6721
     20 C9          1.7728   -0.2298   -0.0161 C.2       1 <0>         0.5680
     21 O4          2.3912   -1.2770   -0.0276 O.2       1 <0>        -0.4731
     22 S2          0.0021   -0.0041    0.0020 S.3       1 <0>        -0.2136
     23 H2         -0.4923    2.2198    0.9178 H         1 <0>         0.1320
     24 H3         -0.5094    2.2295   -0.8802 H         1 <0>         0.1320
     25 H4          5.5031    7.2063   -2.1483 H         1 <0>         0.1085
     26 H5          5.3693    8.7980   -1.3629 H         1 <0>         0.1190
     27 H6          7.5215    8.7840   -2.9848 H         1 <0>         0.4100
     28 H7          9.5623    9.4189   -3.9238 H         1 <0>         0.3986
     29 H8         10.9946    9.1301   -3.0945 H         1 <0>         0.4179
     30 H9          3.2304    1.1403   -0.0230 H         1 <0>         0.4174
@<TRIPOS>BOND
     1    1   22 1
     2    1    2 1
     3    1   23 1
     4    1   24 1
     5    2    3 2
     6    2   19 1
     7    3    4 1
     8    4    5 1
     9    5   11 1
    10    5    6 2
    11    6    7 1
    12    7    8 2
    13    7    9 1
    14    9   10 1
    15    9   11 1
    16    9   12 1
    17   12   13 1
    18   12   25 1
    19   12   26 1
    20   13   14 2
    21   13   15 am
    22   15   16 am
    23   15   27 1
    24   16   17 2
    25   16   18 am
    26   18   28 1
    27   18   29 1
    28   19   20 am
    29   19   30 1
    30   20   21 2
    31   20   22 1
@<TRIPOS>MOLECULE
ZINC06079424
   34    34     0     0     0
SMALL
USER_CHARGES
3-(4-chlorobutanoylthiocarbamoylamino)-4-methyl-benzoic acid
@<TRIPOS>ATOM
      1 C1          2.0484    1.7858    1.8938 C.3       1 <0>        -0.1082
      2 C2          0.9656    2.1384    0.9068 C.ar      1 <0>        -0.0939
      3 C3         -0.2243    1.4342    0.9089 C.ar      1 <0>        -0.1356
      4 C4         -1.2183    1.7473    0.0047 C.ar      1 <0>        -0.0633
      5 C5         -1.0282    2.7854   -0.9102 C.ar      1 <0>        -0.1090
      6 C6          0.1725    3.4958   -0.9121 C.ar      1 <0>        -0.0313
      7 C7          1.1666    3.1699   -0.0025 C.ar      1 <0>         0.0930
      8 N1          2.3726    3.8792   -0.0002 N.pl3     1 <0>        -0.6128
      9 C8          2.3638    5.2236   -0.0951 C.2       1 <0>         0.4949
     10 S1          0.8776    6.0733   -0.0772 S.2       1 <0>        -0.4645
     11 N2          3.5250    5.8990   -0.2041 N.am      1 <0>        -0.6469
     12 C9          3.5162    7.2434   -0.2990 C.2       1 <0>         0.4824
     13 O1          2.4637    7.8452   -0.2863 O.2       1 <0>        -0.4014
     14 C10         4.8146    7.9987   -0.4208 C.3       1 <0>        -0.1345
     15 C11         4.5256    9.4984   -0.5120 C.3       1 <0>        -0.1202
     16 C12         5.8438   10.2652   -0.6357 C.3       1 <0>        -0.0320
     17 Cl1         5.5032   12.0325   -0.7431 Cl        1 <0>        -0.1811
     18 C13        -2.0928    3.1263   -1.8762 C.2       1 <0>         0.4911
     19 O2         -1.9234    4.0265   -2.6740 O.co2     1 <0>        -0.6235
     20 H1          2.7044    1.0315    1.4593 H         1 <0>         0.0655
     21 H2          2.6279    2.6778    2.1315 H         1 <0>         0.0544
     22 H3          1.5962    1.3930    2.8044 H         1 <0>         0.0695
     23 H4         -0.3744    0.6334    1.6178 H         1 <0>         0.1220
     24 H5         -2.1445    1.1919    0.0066 H         1 <0>         0.1342
     25 H6          0.3271    4.2966   -1.6201 H         1 <0>         0.1411
     26 H7          3.2150    3.4034    0.0696 H         1 <0>         0.3995
     27 H8          4.3670    5.4176   -0.2143 H         1 <0>         0.4055
     28 H9          5.4337    7.8005    0.4541 H         1 <0>         0.0992
     29 H10         5.3404    7.6748   -1.3190 H         1 <0>         0.1001
     30 H11         3.9065    9.6966   -1.3869 H         1 <0>         0.0887
     31 H12         3.9997    9.8223    0.3862 H         1 <0>         0.0875
     32 H13         6.4629   10.0670    0.2392 H         1 <0>         0.0929
     33 H14         6.3696    9.9412   -1.5339 H         1 <0>         0.0935
     34 O3         -3.2512    2.4388   -1.8723 O.co2     1 <0>        -0.7567
@<TRIPOS>BOND
     1    1    2 1
     2    1   20 1
     3    1   21 1
     4    1   22 1
     5    2    7 ar
     6    2    3 ar
     7    3    4 ar
     8    3   23 1
     9    4    5 ar
    10    4   24 1
    11    5    6 ar
    12    5   18 1
    13    6    7 ar
    14    6   25 1
    15    7    8 1
    16    8    9 1
    17    8   26 1
    18    9   10 2
    19    9   11 1
    20   11   12 am
    21   11   27 1
    22   12   13 2
    23   12   14 1
    24   14   15 1
    25   14   28 1
    26   14   29 1
    27   15   16 1
    28   15   30 1
    29   15   31 1
    30   16   17 1
    31   16   32 1
    32   16   33 1
    33   18   19 2
    34   18   34 1
@<TRIPOS>MOLECULE
ZINC37450721
   35    36     0     0     0
SMALL
USER_CHARGES

@<TRIPOS>ATOM
      1 C1         -0.0187    1.5258    0.0104 C.3       1 <0>        -0.1240
      2 C2          0.0021   -0.0041    0.0020 C.3       1 <0>        -0.1222
      3 H1          0.0748   -0.4678   -0.9817 H         1 <0>         0.1175
      4 C3         -0.8275   -0.7277    1.0646 C.3       1 <0>        -0.1488
      5 C4          0.6996   -0.7075    1.1680 C.3       1 <0>        -0.1923
      6 H2          1.1437   -0.0805    1.9411 H         1 <0>         0.1240
      7 C5          1.4341   -1.9889    0.8686 C.2       1 <0>         0.5418
      8 O1          1.4564   -2.4249   -0.2629 O.2       1 <0>        -0.5371
      9 N1          2.0663   -2.6503    1.8582 N.am      1 <0>        -0.7277
     10 C6          2.7804   -3.8959    1.5671 C.3       1 <0>         0.1352
     11 C7          3.4044   -4.4388    2.8543 C.3       1 <0>        -0.1470
     12 C8          4.1389   -5.7202    2.5549 C.2       1 <0>         0.5016
     13 O2          4.1612   -6.1562    1.4234 O.2       1 <0>        -0.5175
     14 N2          4.7711   -6.3816    3.5445 N.am      1 <0>        -0.5963
     15 C9          5.4461   -7.5589    3.2693 C.2       1 <0>         0.0427
     16 C10         6.1435   -8.3720    4.1560 C.2       1 <0>        -0.2408
     17 C11         6.7601   -9.5548    3.5966 C.2       1 <0>        -0.0784
     18 C12         6.5891   -9.7366    2.2753 C.2       1 <0>        -0.2809
     19 S1          5.6042   -8.3362    1.7909 S.3       1 <0>         0.1992
     20 C13         6.2451   -8.0581    5.5350 C.2       1 <0>         0.5383
     21 O3          6.8678   -8.7977    6.2873 O.co2     1 <0>        -0.6902
     22 O4          5.7102   -7.0473    5.9741 O.co2     1 <0>        -0.7076
     23 H3          1.0039    1.9031    0.0027 H         1 <0>         0.0621
     24 H4         -0.5459    1.8868   -0.8726 H         1 <0>         0.0647
     25 H5         -0.5289    1.8773    0.9072 H         1 <0>         0.0577
     26 H6         -1.3881   -0.1139    1.7696 H         1 <0>         0.1046
     27 H7         -1.3003   -1.6677    0.7800 H         1 <0>         0.0995
     28 H8          2.0485   -2.3015    2.7632 H         1 <0>         0.4020
     29 H9          2.0820   -4.6295    1.1644 H         1 <0>         0.0793
     30 H10         3.5656   -3.7023    0.8363 H         1 <0>         0.0796
     31 H11         4.1028   -3.7052    3.2570 H         1 <0>         0.1066
     32 H12         2.6192   -4.6324    3.5851 H         1 <0>         0.1066
     33 H13         4.7533   -6.0328    4.4494 H         1 <0>         0.4350
     34 H14         7.3235  -10.2489    4.2026 H         1 <0>         0.1383
     35 H15         6.9578  -10.5417    1.6570 H         1 <0>         0.1748
@<TRIPOS>BOND
     1    1    2 1
     2    1   23 1
     3    1   24 1
     4    1   25 1
     5    2    3 1
     6    2    5 1
     7    2    4 1
     8    4    5 1
     9    4   26 1
    10    4   27 1
    11    5    6 1
    12    5    7 1
    13    7    8 2
    14    7    9 am
    15    9   10 1
    16    9   28 1
    17   10   11 1
    18   10   29 1
    19   10   30 1
    20   11   12 1
    21   11   31 1
    22   11   32 1
    23   12   13 2
    24   12   14 am
    25   14   15 1
    26   14   33 1
    27   15   19 1
    28   15   16 2
    29   16   17 1
    30   16   20 1
    31   17   18 2
    32   17   34 1
    33   18   19 1
    34   18   35 1
    35   20   21 2
    36   20   22 1
@<TRIPOS>MOLECULE
ZINC44384629
   40    40     0     0     0
SMALL
USER_CHARGES

@<TRIPOS>ATOM
      1 C1          0.0469    0.8515    0.0543 C.3       1 <0>        -0.1746
      2 C2         -0.0667   -0.6708    0.1561 C.3       1 <0>         0.1052
      3 N1         -1.4804   -1.0545    0.1811 N.am      1 <0>        -0.6218
      4 C3         -2.1866   -1.3310   -1.0723 C.3       1 <0>         0.1108
      5 C4         -2.0539   -2.8161   -1.4155 C.3       1 <0>        -0.1654
      6 C5         -2.1313   -1.1530    1.3572 C.2       1 <0>         0.4851
      7 O1         -3.3016   -1.4706    1.3778 O.2       1 <0>        -0.5142
      8 C6         -1.4048   -0.8685    2.6465 C.3       1 <0>         0.1180
      9 N2         -2.3240   -1.0434    3.7738 N.pl3     1 <0>        -0.6226
     10 C7         -2.4507   -2.3524    4.4193 C.3       1 <0>         0.1051
     11 C8         -3.0815    0.0404    4.2341 C.ar      1 <0>         0.1300
     12 C9         -2.9635    1.2820    3.6153 C.ar      1 <0>        -0.1387
     13 C10        -3.7044    2.3565    4.0600 C.ar      1 <0>        -0.1923
     14 C11        -4.5759    2.2077    5.1319 C.ar      1 <0>         0.2138
     15 C12        -4.7004    0.9584    5.7613 C.ar      1 <0>        -0.1813
     16 C13        -3.9483   -0.1273    5.2982 C.ar      1 <0>        -0.0938
     17 C14        -5.6198    0.7905    6.8964 C.2       1 <0>         0.5322
     18 O2         -5.6455   -0.2668    7.5118 O.co2     1 <0>        -0.6861
     19 O3         -6.3593    1.7081    7.2257 O.co2     1 <0>        -0.6905
     20 N3         -5.3216    3.2916    5.5800 N.pl3     1 <0>        -0.8691
     21 H1          1.0987    1.1370    0.0357 H         1 <0>         0.0674
     22 H2         -0.4381    1.1917   -0.8607 H         1 <0>         0.0582
     23 H3         -0.4390    1.3105    0.9153 H         1 <0>         0.0602
     24 H4          0.4192   -1.1298   -0.7049 H         1 <0>         0.0773
     25 H5          0.4182   -1.0110    1.0711 H         1 <0>         0.0787
     26 H6         -3.2405   -1.0770   -0.9592 H         1 <0>         0.0815
     27 H7         -1.7526   -0.7328   -1.8735 H         1 <0>         0.0717
     28 H8         -0.9999   -3.0701   -1.5286 H         1 <0>         0.0526
     29 H9         -2.4879   -3.4143   -0.6143 H         1 <0>         0.0584
     30 H10        -2.5793   -3.0219   -2.3481 H         1 <0>         0.0627
     31 H11        -0.5666   -1.5574    2.7509 H         1 <0>         0.0935
     32 H12        -1.0337    0.1563    2.6360 H         1 <0>         0.0994
     33 H13        -1.7287   -2.4279    5.2324 H         1 <0>         0.0422
     34 H14        -3.4592   -2.4652    4.8172 H         1 <0>         0.0713
     35 H15        -2.2585   -3.1380    3.6886 H         1 <0>         0.0521
     36 H16        -2.2873    1.4043    2.7821 H         1 <0>         0.1017
     37 H17        -3.6068    3.3161    3.5743 H         1 <0>         0.1076
     38 H18        -4.0413   -1.0925    5.7737 H         1 <0>         0.1250
     39 H19        -5.1726    4.1724    5.2018 H         1 <0>         0.3719
     40 H20        -5.9910    3.1674    6.2709 H         1 <0>         0.4168
@<TRIPOS>BOND
     1    1    2 1
     2    1   21 1
     3    1   22 1
     4    1   23 1
     5    2    3 1
     6    2   24 1
     7    2   25 1
     8    3    4 1
     9    3    6 am
    10    4    5 1
    11    4   26 1
    12    4   27 1
    13    5   28 1
    14    5   29 1
    15    5   30 1
    16    6    7 2
    17    6    8 1
    18    8    9 1
    19    8   31 1
    20    8   32 1
    21    9   10 1
    22    9   11 1
    23   10   33 1
    24   10   34 1
    25   10   35 1
    26   11   16 ar
    27   11   12 ar
    28   12   13 ar
    29   12   36 1
    30   13   14 ar
    31   13   37 1
    32   14   15 ar
    33   14   20 1
    34   15   16 ar
    35   15   17 1
    36   16   38 1
    37   17   18 2
    38   17   19 1
    39   20   39 1
    40   20   40 1
@<TRIPOS>MOLECULE
ZINC50182910
   43    44     0     0     0
SMALL
USER_CHARGES

@<TRIPOS>ATOM
      1 C1         -0.0184    1.5028    0.0103 C.3       1 <0>        -0.0946
      2 C2          0.0021   -0.0041    0.0020 C.2       1 <0>         0.0870
      3 C3          0.0079   -0.7958   -1.0953 C.2       1 <0>        -0.2307
      4 C4          0.0284   -2.1267   -0.6656 C.2       1 <0>         0.0588
      5 N1          0.0347   -2.1338    0.6427 N.2       1 <0>        -0.2989
      6 N2          0.0237   -0.8054    1.0876 N.pl3     1 <0>        -0.4796
      7 H1          0.0286   -0.5133    2.0125 H         1 <0>         0.4355
      8 C5         -0.0058   -0.3266   -2.5273 C.3       1 <0>        -0.0379
      9 C6          1.4249   -0.0279   -2.9798 C.3       1 <0>        -0.1220
     10 C7          1.4110    0.4485   -4.4337 C.3       1 <0>         0.1205
     11 N3          2.7809    0.7345   -4.8670 N.am      1 <0>        -0.7440
     12 C8          3.0139    1.1710   -6.1207 C.2       1 <0>         0.5296
     13 O1          2.0895    1.3270   -6.8901 O.2       1 <0>        -0.5107
     14 C9          4.4231    1.4652   -6.5664 C.3       1 <0>        -0.0826
     15 H2          5.0259    0.5605   -6.4862 H         1 <0>         0.0953
     16 C10         5.0217    2.5572   -5.6776 C.3       1 <0>        -0.1094
     17 C11         4.1756    3.8270   -5.7901 C.3       1 <0>        -0.1169
     18 C12         4.1617    4.3035   -7.2439 C.3       1 <0>        -0.1199
     19 C13         3.5632    3.2114   -8.1328 C.3       1 <0>        -0.1058
     20 C14         4.4092    1.9416   -8.0203 C.3       1 <0>        -0.1361
     21 H3          5.4285    2.1544   -8.3427 H         1 <0>         0.0619
     22 C15         3.8197    0.8659   -8.8957 C.2       1 <0>         0.5103
     23 O2          3.2177    1.1688   -9.9118 O.co2     1 <0>        -0.6979
     24 O3          3.9446   -0.3071   -8.5879 O.co2     1 <0>        -0.7081
     25 H4          1.0042    1.8801    0.0026 H         1 <0>         0.0815
     26 H5         -0.5455    1.8639   -0.8728 H         1 <0>         0.0887
     27 H6         -0.5286    1.8543    0.9071 H         1 <0>         0.0686
     28 H7          0.0370   -2.9981   -1.3036 H         1 <0>         0.1834
     29 H8         -0.4322   -1.1046   -3.1605 H         1 <0>         0.0750
     30 H9         -0.6085    0.5781   -2.6075 H         1 <0>         0.0700
     31 H10         1.8513    0.7501   -2.3466 H         1 <0>         0.0639
     32 H11         2.0277   -0.9325   -2.8997 H         1 <0>         0.0681
     33 H12         0.9846   -0.3295   -5.0669 H         1 <0>         0.0640
     34 H13         0.8083    1.3532   -4.5139 H         1 <0>         0.0603
     35 H14         3.5203    0.6097   -4.2516 H         1 <0>         0.3924
     36 H15         5.0316    2.2178   -4.6418 H         1 <0>         0.0561
     37 H16         6.0410    2.7700   -5.9999 H         1 <0>         0.0675
     38 H17         3.1564    3.6143   -5.4677 H         1 <0>         0.0571
     39 H18         4.6021    4.6050   -5.1568 H         1 <0>         0.0536
     40 H19         3.5590    5.2081   -7.3241 H         1 <0>         0.0513
     41 H20         5.1810    4.5162   -7.5663 H         1 <0>         0.0526
     42 H21         2.5439    2.9986   -7.8104 H         1 <0>         0.0823
     43 H22         3.5533    3.5508   -9.1685 H         1 <0>         0.0597
@<TRIPOS>BOND
     1    1    2 1
     2    1   25 1
     3    1   26 1
     4    1   27 1
     5    2    6 1
     6    2    3 2
     7    3    4 1
     8    3    8 1
     9    4    5 2
    10    4   28 1
    11    5    6 1
    12    6    7 1
    13    8    9 1
    14    8   29 1
    15    8   30 1
    16    9   10 1
    17    9   31 1
    18    9   32 1
    19   10   11 1
    20   10   33 1
    21   10   34 1
    22   11   12 am
    23   11   35 1
    24   12   13 2
    25   12   14 1
    26   14   15 1
    27   14   20 1
    28   14   16 1
    29   16   17 1
    30   16   36 1
    31   16   37 1
    32   17   18 1
    33   17   38 1
    34   17   39 1
    35   18   19 1
    36   18   40 1
    37   18   41 1
    38   19   20 1
    39   19   42 1
    40   19   43 1
    41   20   21 1
    42   20   22 1
    43   22   23 2
    44   22   24 1
@<TRIPOS>MOLECULE
ZINC61832845
   37    37     0     0     0
SMALL
USER_CHARGES

@<TRIPOS>ATOM
      1 C1         -0.0187    1.5258    0.0104 C.3       1 <0>        -0.1502
      2 C2          0.0021   -0.0041    0.0020 C.3       1 <0>        -0.0535
      3 H1         -1.0205   -0.3814    0.0098 H         1 <0>         0.0782
      4 C3          0.7421   -0.5109    1.2415 C.3       1 <0>        -0.1344
      5 C4         -0.0298   -0.1295    2.4784 C.2       1 <0>         0.5118
      6 O1         -1.0690    0.4868    2.3783 O.2       1 <0>        -0.4521
      7 N1          0.4352   -0.4734    3.6957 N.am      1 <0>        -0.6961
      8 C5         -0.2552   -0.1323    4.8019 C.2       1 <0>         0.6924
      9 O2         -1.2970    0.4855    4.7016 O.2       1 <0>        -0.5307
     10 N2          0.2098   -0.4763    6.0192 N.am      1 <0>        -0.7358
     11 C6         -0.5405   -0.1055    7.2216 C.3       1 <0>         0.1884
     12 H2         -1.6091   -0.1500    7.0111 H         1 <0>         0.0902
     13 C7         -0.1621    1.3165    7.6406 C.3       1 <0>        -0.1622
     14 C8         -0.2028   -1.0777    8.3536 C.3       1 <0>        -0.1653
     15 C9         -1.3043   -2.0335    8.8162 C.3       1 <0>        -0.1766
     16 C10        -0.8900   -0.8574    9.7027 C.3       1 <0>        -0.1683
     17 C11         0.7182   -0.4975   -1.2568 C.3       1 <0>        -0.1796
     18 C12        -0.0771   -0.1029   -2.4745 C.2       1 <0>         0.4904
     19 O3         -1.1200    0.5157   -2.3473 O.co2     1 <0>        -0.6888
     20 O4          0.3224   -0.4021   -3.5868 O.co2     1 <0>        -0.7100
     21 H3          1.0039    1.9031    0.0027 H         1 <0>         0.0292
     22 H4         -0.5459    1.8868   -0.8726 H         1 <0>         0.0857
     23 H5         -0.5289    1.8773    0.9072 H         1 <0>         0.0532
     24 H6          0.8346   -1.5958    1.1912 H         1 <0>         0.0932
     25 H7          1.7350   -0.0630    1.2804 H         1 <0>         0.0932
     26 H8          1.2666   -0.9665    3.7758 H         1 <0>         0.4065
     27 H9          1.0413   -0.9694    6.0993 H         1 <0>         0.3960
     28 H10        -0.4027    2.0092    6.8341 H         1 <0>         0.0635
     29 H11        -0.7204    1.5924    8.5352 H         1 <0>         0.0664
     30 H12         0.9065    1.3610    7.8511 H         1 <0>         0.0571
     31 H13         0.8226   -1.4474    8.3656 H         1 <0>         0.1087
     32 H14        -2.2696   -1.9697    8.3140 H         1 <0>         0.0972
     33 H15        -1.0037   -3.0324    9.1324 H         1 <0>         0.0954
     34 H16        -0.3170   -1.0825   10.6022 H         1 <0>         0.0971
     35 H17        -1.5828   -0.0198    9.7838 H         1 <0>         0.0981
     36 H18         1.7103   -0.0491   -1.3098 H         1 <0>         0.0564
     37 H19         0.8116   -1.5829   -1.2198 H         1 <0>         0.0552
@<TRIPOS>BOND
     1    1    2 1
     2    1   21 1
     3    1   22 1
     4    1   23 1
     5    2    3 1
     6    2    4 1
     7    2   17 1
     8    4    5 1
     9    4   24 1
    10    4   25 1
    11    5    6 2
    12    5    7 am
    13    7    8 am
    14    7   26 1
    15    8    9 2
    16    8   10 am
    17   10   11 1
    18   10   27 1
    19   11   12 1
    20   11   13 1
    21   11   14 1
    22   13   28 1
    23   13   29 1
    24   13   30 1
    25   14   16 1
    26   14   15 1
    27   14   31 1
    28   15   16 1
    29   15   32 1
    30   15   33 1
    31   16   34 1
    32   16   35 1
    33   17   18 1
    34   17   36 1
    35   17   37 1
    36   18   19 2
    37   18   20 1
@<TRIPOS>MOLECULE
ZINC29050873
   32    32     0     0     0
SMALL
USER_CHARGES
[[hydroxy(methyl)phosphoryl]-[(3-methyl-2-pyridyl)amino]methyl]-methyl-phosphinic acid
@<TRIPOS>ATOM
      1 C1          0.0002    5.2704    0.0487 C.3       1 <0>        -0.1217
      2 C2         -0.0223    3.7636    0.0368 C.ar      1 <0>        -0.1712
      3 C3         -1.2251    3.0802    0.0457 C.ar      1 <0>         0.0085
      4 C4         -1.1987    1.6922    0.0294 C.ar      1 <0>        -0.2092
      5 C5          0.0177    1.0391    0.0153 C.ar      1 <0>         0.1661
      6 N1          1.1496    1.7169    0.0073 N.ar      1 <0>        -0.4863
      7 C6          1.1661    3.0410    0.0173 C.ar      1 <0>         0.4520
      8 N2          2.3819    3.7148    0.0087 N.pl3     1 <0>        -0.6456
      9 C7          3.6375    2.9602   -0.0113 C.3       1 <0>        -1.0593
     10 P1          3.9103    2.2788   -1.6800 P.3       1 <0>         2.3030
     11 O1          4.1194    3.3876   -2.6376 O.2       1 <0>        -1.0085
     12 C8          5.3825    1.2037   -1.6642 C.3       1 <0>        -0.7918
     13 O2          2.6235    1.4200   -2.1260 O.3       1 <0>        -1.0931
     14 P2          5.0185    4.0667    0.4264 P.3       1 <0>         2.2809
     15 O3          6.2686    3.2805    0.5243 O.2       1 <0>        -1.0444
     16 C9          4.6744    4.8631    2.0298 C.3       1 <0>        -0.7768
     17 O4          5.1822    5.1959   -0.7094 O.3       1 <0>        -1.0276
     18 H1         -1.0312    5.6524    0.0636 H         1 <0>         0.0871
     19 H2          0.5138    5.6365   -0.8525 H         1 <0>         0.0928
     20 H3          0.5345    5.6221    0.9436 H         1 <0>         0.0748
     21 H4         -2.1635    3.6145    0.0608 H         1 <0>         0.1563
     22 H5         -2.1202    1.1290    0.0313 H         1 <0>         0.1628
     23 H6          0.0428   -0.0406    0.0063 H         1 <0>         0.1885
     24 H7          2.4013    4.8146    0.0169 H         1 <0>         0.4534
     25 H8          3.3853    2.2131    0.7556 H         1 <0>         0.0882
     26 H9          5.5471    0.7926   -2.6711 H         1 <0>         0.0826
     27 H10         5.2270    0.3795   -0.9525 H         1 <0>         0.0549
     28 H11         6.2617    1.7904   -1.3595 H         1 <0>         0.1103
     29 H12         5.5077    5.5308    2.2939 H         1 <0>         0.0889
     30 H13         4.5626    4.0916    2.8059 H         1 <0>         0.0582
     31 H14         3.7453    5.4474    1.9570 H         1 <0>         0.0615
     32 H15         2.1108    1.1822   -0.0080 H         1 <0>         0.4648
@<TRIPOS>BOND
     1    1    2 1
     2    1   18 1
     3    1   19 1
     4    1   20 1
     5    2    7 ar
     6    2    3 ar
     7    3    4 ar
     8    3   21 1
     9    4    5 ar
    10    4   22 1
    11    5    6 ar
    12    5   23 1
    13    6    7 ar
    14    6   32 1
    15    7    8 1
    16    8    9 1
    17    8   24 1
    18    9   10 1
    19    9   14 1
    20    9   25 1
    21   10   11 2
    22   10   12 1
    23   10   13 1
    24   12   26 1
    25   12   27 1
    26   12   28 1
    27   14   15 2
    28   14   16 1
    29   14   17 1
    30   16   29 1
    31   16   30 1
    32   16   31 1
@<TRIPOS>MOLECULE
ZINC40572122
   42    43     0     0     0
SMALL
USER_CHARGES

@<TRIPOS>ATOM
      1 C1         -0.0187    1.5258    0.0104 C.3       1 <0>        -0.1462
      2 C2          0.0021   -0.0041    0.0020 C.3       1 <0>        -0.0930
      3 H1          0.5123   -0.3556   -0.8948 H         1 <0>         0.0677
      4 C3         -1.4333   -0.5336    0.0129 C.3       1 <0>        -0.1116
      5 C4         -1.4126   -2.0635    0.0045 C.3       1 <0>        -0.1161
      6 C5         -0.6726   -2.5703    1.2440 C.3       1 <0>        -0.1303
      7 C6          0.7628   -2.0407    1.2331 C.3       1 <0>         0.1683
      8 H2          1.2900   -2.4018    2.1162 H         1 <0>         0.0865
      9 C7          0.7421   -0.5109    1.2415 C.3       1 <0>        -0.1208
     10 N1          1.4485   -2.5132    0.0278 N.am      1 <0>        -0.7490
     11 C8          2.0336   -3.7273    0.0175 C.2       1 <0>         0.7144
     12 O1          1.9923   -4.4305    1.0085 O.2       1 <0>        -0.5692
     13 N2          2.6644   -4.1620   -1.0914 N.am      1 <0>        -0.7203
     14 C9          3.3004   -5.4817   -1.1026 C.3       1 <0>         0.1498
     15 C10         2.2472   -6.5577   -0.8308 C.3       1 <0>        -0.1391
     16 C11         3.9399   -5.7280   -2.4705 C.3       1 <0>        -0.1398
     17 C12         3.3866   -6.8800   -3.3119 C.3       1 <0>        -0.1967
     18 C13         4.7588   -7.0083   -2.6473 C.3       1 <0>        -0.1536
     19 C14         4.3621   -5.5368   -0.0345 C.2       1 <0>         0.5057
     20 O2          4.5684   -4.5638    0.6707 O.co2     1 <0>        -0.6754
     21 O3          5.0147   -6.5543    0.1244 O.co2     1 <0>        -0.6979
     22 H3          1.0039    1.9031    0.0027 H         1 <0>         0.0541
     23 H4         -0.5459    1.8868   -0.8726 H         1 <0>         0.0517
     24 H5         -0.5289    1.8773    0.9072 H         1 <0>         0.0532
     25 H6         -1.9435   -0.1821    0.9097 H         1 <0>         0.0601
     26 H7         -1.9605   -0.1726   -0.8702 H         1 <0>         0.0570
     27 H8         -2.4352   -2.4408    0.0122 H         1 <0>         0.0559
     28 H9         -0.9024   -2.4150   -0.8923 H         1 <0>         0.0619
     29 H10        -1.1828   -2.2188    2.1408 H         1 <0>         0.0638
     30 H11        -0.6578   -3.6602    1.2380 H         1 <0>         0.0683
     31 H12         1.7647   -0.1336    1.2338 H         1 <0>         0.0684
     32 H13         0.2319   -0.1594    2.1383 H         1 <0>         0.0733
     33 H14         1.4815   -1.9522   -0.7628 H         1 <0>         0.3837
     34 H15         2.6974   -3.6010   -1.8820 H         1 <0>         0.3778
     35 H16         1.4793   -6.5178   -1.6033 H         1 <0>         0.0371
     36 H17         2.7204   -7.5396   -0.8391 H         1 <0>         0.0603
     37 H18         1.7916   -6.3821    0.1438 H         1 <0>         0.0695
     38 H19         4.2792   -4.8367   -2.9982 H         1 <0>         0.0927
     39 H20         2.5670   -7.4623   -2.8908 H         1 <0>         0.0963
     40 H21         3.3617   -6.7466   -4.3934 H         1 <0>         0.0809
     41 H22         5.6366   -6.9593   -3.2916 H         1 <0>         0.0813
     42 H23         4.8419   -7.6751   -1.7890 H         1 <0>         0.1191
@<TRIPOS>BOND
     1    1    2 1
     2    1   22 1
     3    1   23 1
     4    1   24 1
     5    2    3 1
     6    2    9 1
     7    2    4 1
     8    4    5 1
     9    4   25 1
    10    4   26 1
    11    5    6 1
    12    5   27 1
    13    5   28 1
    14    6    7 1
    15    6   29 1
    16    6   30 1
    17    7    8 1
    18    7    9 1
    19    7   10 1
    20    9   31 1
    21    9   32 1
    22   10   11 am
    23   10   33 1
    24   11   12 2
    25   11   13 am
    26   13   14 1
    27   13   34 1
    28   14   15 1
    29   14   16 1
    30   14   19 1
    31   15   35 1
    32   15   36 1
    33   15   37 1
    34   16   18 1
    35   16   17 1
    36   16   38 1
    37   17   18 1
    38   17   39 1
    39   17   40 1
    40   18   41 1
    41   18   42 1
    42   19   20 2
    43   19   21 1
@<TRIPOS>MOLECULE
ZINC41035883
   38    39     0     0     0
SMALL
USER_CHARGES

@<TRIPOS>ATOM
      1 C1         -0.0191    1.5318    0.0385 C.3       1 <0>        -0.1448
      2 C2          0.0014    0.0020    0.0223 C.3       1 <0>        -0.0921
      3 H1         -1.0212   -0.3752    0.0290 H         1 <0>         0.0623
      4 C3          0.7163   -0.4850   -1.2397 C.3       1 <0>        -0.1096
      5 C4          0.7368   -2.0148   -1.2560 C.3       1 <0>        -0.1133
      6 C5          1.4780   -2.5281   -0.0198 C.3       1 <0>        -0.1136
      7 C6          0.7631   -2.0410    1.2422 C.3       1 <0>         0.1278
      8 C7          0.7425   -0.5113    1.2585 C.3       1 <0>        -0.0983
      9 C8          1.4930   -2.5466    2.4598 C.2       1 <0>         0.5010
     10 O1          2.6582   -2.2383    2.6438 O.co2     1 <0>        -0.6999
     11 O2          0.9185   -3.2639    3.2610 O.co2     1 <0>        -0.6758
     12 N1         -0.6114   -2.5480    1.2513 N.am      1 <0>        -0.7078
     13 C9         -0.8398   -3.8762    1.2398 C.2       1 <0>         0.7118
     14 O3          0.0948   -4.6537    1.2218 O.2       1 <0>        -0.5496
     15 N2         -2.1043   -4.3426    1.2481 N.am      1 <0>        -0.6916
     16 C10        -2.3440   -5.7172    1.1374 C.ar      1 <0>         0.1352
     17 C11        -1.4729   -6.6354    1.7187 C.ar      1 <0>        -0.0776
     18 C12        -1.7527   -7.9851    1.5823 C.ar      1 <0>        -0.1521
     19 C13        -2.8781   -8.3738    0.8794 C.ar      1 <0>         0.0628
     20 N3         -3.6828   -7.4791    0.3404 N.ar      1 <0>        -0.4713
     21 C14        -3.4566   -6.1852    0.4514 C.ar      1 <0>         0.0590
     22 H2          1.0035    1.9090    0.0318 H         1 <0>         0.0544
     23 H3         -0.5471    1.8975   -0.8422 H         1 <0>         0.0491
     24 H4         -0.5284    1.8788    0.9376 H         1 <0>         0.0520
     25 H5          0.1883   -0.1194   -2.1204 H         1 <0>         0.0526
     26 H6          1.7389   -0.1078   -1.2465 H         1 <0>         0.0609
     27 H7         -0.2858   -2.3920   -1.2492 H         1 <0>         0.0533
     28 H8          1.2461   -2.3618   -2.1551 H         1 <0>         0.0521
     29 H9          1.4926   -3.6179   -0.0314 H         1 <0>         0.0768
     30 H10         2.5006   -2.1509   -0.0266 H         1 <0>         0.0688
     31 H11         1.7652   -0.1341    1.2517 H         1 <0>         0.0818
     32 H12         0.2332   -0.1643    2.1575 H         1 <0>         0.0584
     33 H13        -1.3570   -1.9277    1.2656 H         1 <0>         0.3811
     34 H14        -2.8482   -3.7257    1.3309 H         1 <0>         0.4009
     35 H15        -0.6007   -6.3033    2.2621 H         1 <0>         0.1587
     36 H16        -1.0990   -8.7253    2.0197 H         1 <0>         0.1339
     37 H17        -3.1010   -9.4249    0.7700 H         1 <0>         0.1513
     38 H18        -4.1411   -5.4822    0.0001 H         1 <0>         0.1515
@<TRIPOS>BOND
     1    1    2 1
     2    1   22 1
     3    1   23 1
     4    1   24 1
     5    2    3 1
     6    2    8 1
     7    2    4 1
     8    4    5 1
     9    4   25 1
    10    4   26 1
    11    5    6 1
    12    5   27 1
    13    5   28 1
    14    6    7 1
    15    6   29 1
    16    6   30 1
    17    7    8 1
    18    7    9 1
    19    7   12 1
    20    8   31 1
    21    8   32 1
    22    9   10 2
    23    9   11 1
    24   12   13 am
    25   12   33 1
    26   13   14 2
    27   13   15 am
    28   15   16 1
    29   15   34 1
    30   16   21 ar
    31   16   17 ar
    32   17   18 ar
    33   17   35 1
    34   18   19 ar
    35   18   36 1
    36   19   20 ar
    37   19   37 1
    38   20   21 ar
    39   21   38 1
@<TRIPOS>MOLECULE
ZINC51040292
   26    27     0     0     0
SMALL
USER_CHARGES

@<TRIPOS>ATOM
      1 C1          0.0239   -0.7695    1.2439 C.3       1 <0>         0.1309
      2 N1         -0.0188    0.0053    0.0013 N.pl3     1 <0>        -0.6513
      3 C2         -0.0529    1.4690    0.0515 C.3       1 <0>         0.0778
      4 C3          1.3520    2.0003    0.1745 C.2       1 <0>         0.4727
      5 O1          2.2996    1.2347    0.1263 O.co2     1 <0>        -0.6845
      6 O2          1.5409    3.1957    0.3223 O.co2     1 <0>        -0.7125
      7 C4         -0.0270   -0.6549   -1.2375 C.ar      1 <0>         0.1074
      8 C5          1.1794   -1.0424   -1.8128 C.ar      1 <0>        -0.0225
      9 C6          1.1747   -1.6932   -3.0327 C.ar      1 <0>        -0.1354
     10 C7         -0.0197   -1.9497   -3.6624 C.ar      1 <0>        -0.1096
     11 C8         -1.2645   -1.5730   -3.1121 C.ar      1 <0>        -0.0110
     12 C9         -1.2342   -0.9131   -1.8609 C.ar      1 <0>         0.2720
     13 N2         -2.4319   -0.5150   -1.2534 N.pl3     1 <0>        -0.8542
     14 N3         -2.3177   -1.9146   -3.8837 N.2       1 <0>        -0.4882
     15 C10        -2.1730   -2.5308   -5.0200 C.2       1 <0>         0.0355
     16 S1         -0.5092   -2.7272   -5.1802 S.3       1 <0>         0.0432
     17 H1         -0.9927   -0.9863    1.5720 H         1 <0>         0.0175
     18 H2          0.5570   -1.7044    1.0710 H         1 <0>         0.0462
     19 H3          0.5391   -0.1943    2.0132 H         1 <0>         0.0556
     20 H4         -0.5081    1.8534   -0.8613 H         1 <0>         0.0569
     21 H5         -0.6392    1.7894    0.9127 H         1 <0>         0.0562
     22 H6          2.1127   -0.8359   -1.3102 H         1 <0>         0.1533
     23 H7          2.1050   -1.9982   -3.4887 H         1 <0>         0.1284
     24 H8         -2.4191   -0.1257   -0.3650 H         1 <0>         0.4032
     25 H9         -3.2741   -0.6287   -1.7210 H         1 <0>         0.3999
     26 H10        -2.9459   -2.8455   -5.7056 H         1 <0>         0.2126
@<TRIPOS>BOND
     1    1    2 1
     2    1   17 1
     3    1   18 1
     4    1   19 1
     5    2    3 1
     6    2    7 1
     7    3    4 1
     8    3   20 1
     9    3   21 1
    10    4    5 2
    11    4    6 1
    12    7   12 ar
    13    7    8 ar
    14    8    9 ar
    15    8   22 1
    16    9   10 ar
    17    9   23 1
    18   10   16 1
    19   10   11 ar
    20   11   12 ar
    21   11   14 1
    22   12   13 1
    23   13   24 1
    24   13   25 1
    25   14   15 2
    26   15   16 1
    27   15   26 1
@<TRIPOS>MOLECULE
ZINC61713099
   40    41     0     0     0
SMALL
USER_CHARGES

@<TRIPOS>ATOM
      1 C1         -0.2744    1.5221    0.0487 C.3       1 <0>        -0.1469
      2 C2         -0.2537   -0.0077    0.0403 C.3       1 <0>        -0.0876
      3 H1          0.0776   -0.3613   -0.9361 H         1 <0>         0.0578
      4 C3         -1.6603   -0.5384    0.3245 C.3       1 <0>        -0.1097
      5 C4         -2.1253   -0.0422    1.6950 C.3       1 <0>        -0.1188
      6 C5         -1.1630   -0.5452    2.7730 C.3       1 <0>        -0.1053
      7 C6          0.2436   -0.0145    2.4888 C.3       1 <0>         0.1292
      8 C7          0.7086   -0.5107    1.1182 C.3       1 <0>        -0.1077
      9 C8          1.1914   -0.5098    3.5505 C.2       1 <0>         0.5002
     10 O1          1.3552   -1.7073    3.7108 O.co2     1 <0>        -0.7034
     11 O2          1.7944    0.2869    4.2492 O.co2     1 <0>        -0.6745
     12 N1          0.2237    1.4504    2.4968 N.am      1 <0>        -0.7101
     13 C9          1.3619    2.1409    2.2870 C.2       1 <0>         0.7376
     14 O3          2.4053    1.5481    2.0910 O.2       1 <0>        -0.5625
     15 N2          1.3437    3.4885    2.2944 N.am      1 <0>        -0.6427
     16 C10         0.1588    4.3281    2.5240 C.3       1 <0>         0.1027
     17 C11         0.6219    5.7992    2.4682 C.3       1 <0>        -0.1188
     18 C12         2.1398    5.6975    2.7729 C.3       1 <0>         0.0880
     19 H2          2.3198    5.6389    3.8463 H         1 <0>         0.0746
     20 C13         2.5096    4.3648    2.0799 C.3       1 <0>         0.1007
     21 O4          2.8526    6.7934    2.1959 O.3       1 <0>        -0.5594
     22 H3          0.7482    1.8993    0.0603 H         1 <0>         0.0504
     23 H4         -0.7848    1.8834   -0.8440 H         1 <0>         0.0310
     24 H5         -0.8014    1.8734    0.9358 H         1 <0>         0.0699
     25 H6         -2.3458   -0.1801   -0.4435 H         1 <0>         0.0524
     26 H7         -1.6455   -1.6283    0.3185 H         1 <0>         0.0601
     27 H8         -2.1401    1.0477    1.7010 H         1 <0>         0.0572
     28 H9         -3.1274   -0.4203    1.8975 H         1 <0>         0.0562
     29 H10        -1.4943   -0.1917    3.7494 H         1 <0>         0.0572
     30 H11        -1.1482   -1.6350    2.7670 H         1 <0>         0.0809
     31 H12         0.7234   -1.6006    1.1122 H         1 <0>         0.0670
     32 H13         1.7107   -0.1326    0.9158 H         1 <0>         0.0761
     33 H14        -0.6087    1.9233    2.6532 H         1 <0>         0.3787
     34 H15        -0.5828    4.1432    1.7469 H         1 <0>         0.0642
     35 H16        -0.2658    4.1101    3.5040 H         1 <0>         0.0642
     36 H17         0.4549    6.2187    1.4761 H         1 <0>         0.0835
     37 H18         0.1147    6.3923    3.2292 H         1 <0>         0.0835
     38 H19         3.3988    3.9322    2.5386 H         1 <0>         0.0778
     39 H20         2.6719    4.5263    1.0142 H         1 <0>         0.0648
     40 H21         3.8054    6.7729    2.3599 H         1 <0>         0.3816
@<TRIPOS>BOND
     1    1    2 1
     2    1   22 1
     3    1   23 1
     4    1   24 1
     5    2    3 1
     6    2    8 1
     7    2    4 1
     8    4    5 1
     9    4   25 1
    10    4   26 1
    11    5    6 1
    12    5   27 1
    13    5   28 1
    14    6    7 1
    15    6   29 1
    16    6   30 1
    17    7    8 1
    18    7    9 1
    19    7   12 1
    20    8   31 1
    21    8   32 1
    22    9   10 2
    23    9   11 1
    24   12   13 am
    25   12   33 1
    26   13   14 2
    27   13   15 am
    28   15   20 1
    29   15   16 1
    30   16   17 1
    31   16   34 1
    32   16   35 1
    33   17   18 1
    34   17   36 1
    35   17   37 1
    36   18   19 1
    37   18   20 1
    38   18   21 1
    39   20   38 1
    40   20   39 1
    41   21   40 1
@<TRIPOS>MOLECULE
ZINC19519591
   32    32     0     0     0
SMALL
USER_CHARGES
(2R)-4-amino-2-[[(1S)-cyclohex-3-ene-1-carbonyl]amino]-4-oxo-butanoic acid
@<TRIPOS>ATOM
      1 C1         -2.7968    2.1361    0.0603 C.3       1 <0>        -0.0941
      2 C2         -2.2407    1.2775   -1.0777 C.3       1 <0>        -0.0992
      3 C3         -0.7473    1.5900   -1.2361 C.3       1 <0>        -0.1027
      4 H1         -0.5889    2.6710   -1.3643 H         1 <0>         0.0942
      5 C4         -0.0127    1.0858    0.0080 C.3       1 <0>        -0.0792
      6 C5         -0.7096    1.5670    1.2469 C.2       1 <0>        -0.1508
      7 C6         -1.9191    2.0198    1.2720 C.2       1 <0>        -0.1573
      8 C7         -0.2105    0.8918   -2.4590 C.2       1 <0>         0.5263
      9 O1         -0.9510    0.2255   -3.1509 O.2       1 <0>        -0.5529
     10 N1          1.0923    1.0078   -2.7838 N.am      1 <0>        -0.6999
     11 C8          1.6141    0.3291   -3.9727 C.3       1 <0>         0.1225
     12 H2          1.0664   -0.6187   -4.0807 H         1 <0>         0.0936
     13 C9          3.1140    0.0806   -3.8010 C.3       1 <0>        -0.1318
     14 C10         3.3368   -0.8815   -2.6626 C.2       1 <0>         0.5149
     15 O2          2.3892   -1.3248   -2.0491 O.2       1 <0>        -0.5401
     16 N2          4.5891   -1.2492   -2.3264 N.am      1 <0>        -0.8853
     17 C11         1.3836    1.1927   -5.1859 C.2       1 <0>         0.4582
     18 O3          0.8393    2.2651   -5.0695 O.co2     1 <0>        -0.6254
     19 O4          1.7830    0.7706   -6.3959 O.co2     1 <0>        -0.7691
     20 H3         -3.8118    1.7923    0.3084 H         1 <0>         0.0711
     21 H4         -2.8347    3.1860   -0.2656 H         1 <0>         0.0731
     22 H5         -2.3785    0.2134   -0.8352 H         1 <0>         0.0674
     23 H6         -2.7751    1.5133   -2.0098 H         1 <0>         0.0749
     24 H7          0.0011   -0.0141    0.0050 H         1 <0>         0.0809
     25 H8          1.0197    1.4655    0.0033 H         1 <0>         0.0732
     26 H9         -0.1219    1.5162    2.1754 H         1 <0>         0.1030
     27 H10        -2.3636    2.3487    2.2229 H         1 <0>         0.1014
     28 H11         1.7639    1.6121   -2.1562 H         1 <0>         0.4001
     29 H12         3.5232   -0.3473   -4.7281 H         1 <0>         0.1143
     30 H13         3.6205    1.0320   -3.5814 H         1 <0>         0.0909
     31 H14         4.7518   -1.9514   -1.4955 H         1 <0>         0.4110
     32 H15         5.4485   -0.8471   -2.8829 H         1 <0>         0.4167
@<TRIPOS>BOND
     1    1    7 1
     2    1    2 1
     3    1   20 1
     4    1   21 1
     5    2    3 1
     6    2   22 1
     7    2   23 1
     8    3    4 1
     9    3    5 1
    10    3    8 1
    11    5    6 1
    12    5   24 1
    13    5   25 1
    14    6    7 2
    15    6   26 1
    16    7   27 1
    17    8    9 2
    18    8   10 am
    19   10   11 1
    20   10   28 1
    21   11   12 1
    22   11   13 1
    23   11   17 1
    24   13   14 1
    25   13   29 1
    26   13   30 1
    27   14   15 2
    28   14   16 am
    29   16   31 1
    30   16   32 1
    31   17   18 2
    32   17   19 1
@<TRIPOS>MOLECULE
ZINC35764118
   19    19     0     0     0
SMALL
USER_CHARGES

@<TRIPOS>ATOM
      1 C1         -0.0163    1.3536    0.0095 C.2       1 <0>         0.0083
      2 C2          1.2731    1.7809   -0.0005 C.2       1 <0>         0.0139
      3 C3          2.1006    0.6479   -0.0145 C.2       1 <0>         0.0538
      4 N1          1.3405   -0.4167   -0.0130 N.2       1 <0>        -0.2887
      5 N2          0.0021   -0.0041    0.0020 N.pl3     1 <0>        -0.4802
      6 H1         -0.7744   -0.5854    0.0063 H         1 <0>         0.4410
      7 N3          1.7019    3.1192    0.0019 N.am      1 <0>        -0.6470
      8 C4          3.0189    3.4049   -0.0091 C.2       1 <0>         0.5523
      9 O1          3.8360    2.5050   -0.0210 O.2       1 <0>        -0.5395
     10 C5          3.4698    4.8124   -0.0066 C.2       1 <0>        -0.2167
     11 C6          4.7825    5.0971   -0.0175 C.2       1 <0>        -0.0866
     12 C7          5.2321    6.5005   -0.0150 C.2       1 <0>         0.5035
     13 O2          4.4101    7.4059   -0.0030 O.co2     1 <0>        -0.6818
     14 O3          6.4272    6.7597   -0.0249 O.co2     1 <0>        -0.6809
     15 H2         -0.8961    1.9799    0.0252 H         1 <0>         0.1788
     16 H3          3.1806    0.6537   -0.0248 H         1 <0>         0.2079
     17 H4          1.0499    3.8373    0.0114 H         1 <0>         0.4121
     18 H5          2.7439    5.6119    0.0040 H         1 <0>         0.1354
     19 H6          5.5085    4.2976   -0.0281 H         1 <0>         0.1146
@<TRIPOS>BOND
     1    1    5 1
     2    1    2 2
     3    1   15 1
     4    2    3 1
     5    2    7 1
     6    3    4 2
     7    3   16 1
     8    4    5 1
     9    5    6 1
    10    7    8 am
    11    7   17 1
    12    8    9 2
    13    8   10 1
    14   10   11 2
    15   10   18 1
    16   11   12 1
    17   11   19 1
    18   12   13 2
    19   12   14 1
@<TRIPOS>MOLECULE
ZINC40481242
   33    34     0     0     0
SMALL
USER_CHARGES

@<TRIPOS>ATOM
      1 C1         -0.0167    1.3778    0.0096 C.ar      1 <0>        -0.0816
      2 C2          1.1663    2.0889    0.0021 C.ar      1 <0>        -0.1497
      3 C3          2.3871    1.4124   -0.0136 C.ar      1 <0>        -0.0638
      4 C4          2.4064    0.0177   -0.0213 C.ar      1 <0>        -0.1406
      5 C5          1.2127   -0.6874   -0.0133 C.ar      1 <0>         0.2042
      6 C6          0.0021   -0.0041    0.0020 C.ar      1 <0>        -0.1878
      7 N1          1.2264   -2.0844   -0.0214 N.pl3     1 <0>        -0.8809
      8 C7          3.6558    2.1718   -0.0227 C.2       1 <0>         0.5566
      9 O1          4.7178    1.5808   -0.0364 O.2       1 <0>        -0.5130
     10 N2          3.6346    3.5194   -0.0156 N.am      1 <0>        -0.6951
     11 C8          4.8916    4.2718   -0.0246 C.3       1 <0>         0.1030
     12 C9          5.6823    4.0219    1.2836 C.3       1 <0>        -0.1111
     13 C10         4.9916    4.9772    2.2883 C.3       1 <0>        -0.1221
     14 C11         4.6763    6.2375    1.4565 C.3       1 <0>        -0.1199
     15 C12         4.6128    5.7890   -0.0141 C.3       1 <0>        -0.1116
     16 C13         5.7211    3.8963   -1.2254 C.2       1 <0>         0.5038
     17 O2          5.3008    3.0771   -2.0246 O.co2     1 <0>        -0.6738
     18 O3          6.8125    4.4117   -1.3977 O.co2     1 <0>        -0.7006
     19 H1         -0.9602    1.9031    0.0260 H         1 <0>         0.1226
     20 H2          1.1473    3.1687    0.0081 H         1 <0>         0.1205
     21 H3          3.3480   -0.5111   -0.0339 H         1 <0>         0.1324
     22 H4         -0.9268   -0.5550    0.0083 H         1 <0>         0.1179
     23 H5          2.0711   -2.5610   -0.0327 H         1 <0>         0.3986
     24 H6          0.3912   -2.5776   -0.0157 H         1 <0>         0.3953
     25 H7          2.7871    3.9911   -0.0047 H         1 <0>         0.3835
     26 H8          5.5809    2.9851    1.6042 H         1 <0>         0.0669
     27 H9          6.7319    4.2874    1.1573 H         1 <0>         0.0780
     28 H10         4.0725    4.5313    2.6685 H         1 <0>         0.0566
     29 H11         5.6664    5.2206    3.1089 H         1 <0>         0.0571
     30 H12         3.7169    6.6556    1.7611 H         1 <0>         0.0548
     31 H13         5.4653    6.9782    1.5872 H         1 <0>         0.0606
     32 H14         5.3709    6.3120   -0.5970 H         1 <0>         0.0827
     33 H15         3.6225    5.9895   -0.4231 H         1 <0>         0.0565
@<TRIPOS>BOND
     1    1    6 ar
     2    1    2 ar
     3    1   19 1
     4    2    3 ar
     5    2   20 1
     6    3    4 ar
     7    3    8 1
     8    4    5 ar
     9    4   21 1
    10    5    6 ar
    11    5    7 1
    12    6   22 1
    13    7   23 1
    14    7   24 1
    15    8    9 2
    16    8   10 am
    17   10   11 1
    18   10   25 1
    19   11   15 1
    20   11   12 1
    21   11   16 1
    22   12   13 1
    23   12   26 1
    24   12   27 1
    25   13   14 1
    26   13   28 1
    27   13   29 1
    28   14   15 1
    29   14   30 1
    30   14   31 1
    31   15   32 1
    32   15   33 1
    33   16   17 2
    34   16   18 1
@<TRIPOS>MOLECULE
ZINC40700102
   36    36     0     0     0
SMALL
USER_CHARGES

@<TRIPOS>ATOM
      1 C1         -0.0177    1.5246    0.0056 C.3       1 <0>        -0.1434
      2 C2          0.0031   -0.0053   -0.0016 C.3       1 <0>        -0.1120
      3 H1          0.5141   -0.3579   -0.8976 H         1 <0>         0.0806
      4 C3         -1.4323   -0.5358    0.0099 C.3       1 <0>        -0.1092
      5 C4         -1.4130   -2.0655   -0.0304 C.3       1 <0>        -0.1378
      6 C5         -0.6914   -2.5960    1.2124 C.3       1 <0>         0.1329
      7 N1          0.6392   -1.9775    1.2868 N.am      1 <0>        -0.6345
      8 C6          0.7414   -0.5124    1.2411 C.3       1 <0>         0.1219
      9 C7          1.7456   -2.7395    1.3950 C.2       1 <0>         0.7141
     10 O1          1.6438   -3.9442    1.5240 O.2       1 <0>        -0.5953
     11 N2          2.9648   -2.1661    1.3602 N.am      1 <0>        -0.7125
     12 C8          4.1679   -3.0021    1.3656 C.3       1 <0>         0.0941
     13 H2          3.9950   -3.8836    1.9830 H         1 <0>         0.0848
     14 C9          5.3417   -2.2028    1.9350 C.3       1 <0>        -0.1084
     15 C10         5.0702   -1.8747    3.4045 C.3       1 <0>         0.0785
     16 O2          6.1665   -1.1282    3.9364 O.3       1 <0>        -0.5758
     17 C11         4.4882   -3.4305   -0.0433 C.2       1 <0>         0.4918
     18 O3          3.8942   -2.9295   -0.9828 O.co2     1 <0>        -0.6853
     19 O4          5.3414   -4.2781   -0.2436 O.co2     1 <0>        -0.6968
     20 H3          1.0048    1.9019   -0.0015 H         1 <0>         0.0571
     21 H4         -0.5442    1.8850   -0.8782 H         1 <0>         0.0562
     22 H5         -0.5288    1.8767    0.9017 H         1 <0>         0.0534
     23 H6         -1.9352   -0.2028    0.9179 H         1 <0>         0.0603
     24 H7         -1.9668   -0.1562   -0.8610 H         1 <0>         0.0616
     25 H8         -2.4358   -2.4420   -0.0458 H         1 <0>         0.0708
     26 H9         -0.8885   -2.3992   -0.9258 H         1 <0>         0.0693
     27 H10        -1.2637   -2.3403    2.1042 H         1 <0>         0.0568
     28 H11        -0.5876   -3.6787    1.1404 H         1 <0>         0.0910
     29 H12         1.7902   -0.2203    1.1877 H         1 <0>         0.0757
     30 H13         0.2865   -0.0868    2.1355 H         1 <0>         0.0618
     31 H14         3.0457   -1.1999    1.3315 H         1 <0>         0.3855
     32 H15         6.2548   -2.7930    1.8572 H         1 <0>         0.0884
     33 H16         5.4583   -1.2771    1.3716 H         1 <0>         0.0671
     34 H17         4.1571   -1.2846    3.4823 H         1 <0>         0.0411
     35 H18         4.9536   -2.8005    3.9680 H         1 <0>         0.0447
     36 H19         6.0624   -0.8850    4.8664 H         1 <0>         0.3716
@<TRIPOS>BOND
     1    1    2 1
     2    1   20 1
     3    1   21 1
     4    1   22 1
     5    2    3 1
     6    2    8 1
     7    2    4 1
     8    4    5 1
     9    4   23 1
    10    4   24 1
    11    5    6 1
    12    5   25 1
    13    5   26 1
    14    6    7 1
    15    6   27 1
    16    6   28 1
    17    7    8 1
    18    7    9 am
    19    8   29 1
    20    8   30 1
    21    9   10 2
    22    9   11 am
    23   11   12 1
    24   11   31 1
    25   12   13 1
    26   12   14 1
    27   12   17 1
    28   14   15 1
    29   14   32 1
    30   14   33 1
    31   15   16 1
    32   15   34 1
    33   15   35 1
    34   16   36 1
    35   17   18 2
    36   17   19 1
@<TRIPOS>MOLECULE
ZINC19479562
   21    21     0     0     0
SMALL
USER_CHARGES

@<TRIPOS>ATOM
      1 C1         -0.0170    1.4030    0.0098 C.2       1 <0>        -0.0874
      2 C2         -1.2070    2.0616    0.0190 C.2       1 <0>        -0.2049
      3 C3         -2.4057    1.3198    0.0206 C.2       1 <0>         0.4811
      4 O1         -3.4837    1.8931    0.0285 O.2       1 <0>        -0.6014
      5 N1         -2.3531   -0.0274    0.0131 N.am      1 <0>        -0.4007
      6 N2         -1.1171   -0.6839    0.0036 N.2       1 <0>        -0.3853
      7 C4          0.0021   -0.0041    0.0020 C.2       1 <0>         0.3559
      8 O2          1.1902   -0.6619   -0.0129 O.3       1 <0>        -0.7206
      9 C5         -3.5937   -0.8066    0.0152 C.3       1 <0>         0.1559
     10 C6         -4.0330   -1.0700   -1.4265 C.3       1 <0>        -0.1297
     11 C7         -5.3092   -1.8715   -1.4243 C.2       1 <0>         0.2981
     12 S1         -5.9791   -2.3043   -0.0384 S.2       1 <0>        -0.4526
     13 N3         -5.8858   -2.2236   -2.5905 N.pl3     1 <0>        -0.7850
     14 H1          0.9096    1.9578    0.0039 H         1 <0>         0.1231
     15 H2         -1.2332    3.1413    0.0253 H         1 <0>         0.1364
     16 H3         -3.4254   -1.7563    0.5231 H         1 <0>         0.0996
     17 H4         -4.3721   -0.2490    0.5361 H         1 <0>         0.1010
     18 H5         -4.2013   -0.1203   -1.9343 H         1 <0>         0.0996
     19 H6         -3.2546   -1.6276   -1.9474 H         1 <0>         0.1054
     20 H7         -5.4794   -1.9611   -3.4312 H         1 <0>         0.3970
     21 H8         -6.7073   -2.7395   -2.5890 H         1 <0>         0.4145
@<TRIPOS>BOND
     1    1    7 1
     2    1   14 1
     3    1    2 2
     4    2   15 1
     5    2    3 1
     6    3    4 2
     7    3    5 am
     8    5    9 1
     9    5    6 1
    10    6    7 2
    11    7    8 1
    12    9   10 1
    13    9   16 1
    14    9   17 1
    15   10   11 1
    16   10   18 1
    17   10   19 1
    18   11   12 2
    19   11   13 1
    20   13   20 1
    21   13   21 1
@<TRIPOS>MOLECULE
ZINC20218378
   30    30     0     0     0
SMALL
USER_CHARGES
(E)-4-oxo-4-[[(2S)-tetrahydrofuran-2-yl]methylcarbamoylamino]but-2-enoic acid
@<TRIPOS>ATOM
      1 C1         -0.7781    1.6063   -1.2241 C.3       1 <0>        -0.1606
      2 C2         -1.9281    2.4530   -0.6265 C.3       1 <0>        -0.1401
      3 C3         -1.3936    2.7709    0.7932 C.3       1 <0>         0.0692
      4 H1         -0.7035    3.6258    0.8468 H         1 <0>         0.0819
      5 O1         -0.7045    1.5588    1.1759 O.3       1 <0>        -0.3697
      6 C4         -0.0127    1.0858    0.0080 C.3       1 <0>         0.0421
      7 C5         -2.5502    3.0595    1.7523 C.3       1 <0>         0.1415
      8 N1         -2.0152    3.4723    3.0521 N.am      1 <0>        -0.7500
      9 C6         -2.8557    3.7795    4.0600 C.2       1 <0>         0.6977
     10 O2         -4.0575    3.7140    3.8904 O.2       1 <0>        -0.5422
     11 N2         -2.3636    4.1593    5.2558 N.am      1 <0>        -0.7010
     12 C7         -3.2041    4.4664    6.2636 C.2       1 <0>         0.5561
     13 O3         -4.4053    4.4010    6.0941 O.2       1 <0>        -0.4832
     14 C8         -2.6651    4.8823    7.5732 C.2       1 <0>        -0.2186
     15 C9         -3.5027    5.1884    8.5775 C.2       1 <0>        -0.0634
     16 C10        -2.9639    5.6042    9.8866 C.2       1 <0>         0.4731
     17 O4         -1.7631    5.6696   10.0560 O.co2     1 <0>        -0.6242
     18 O5         -3.8043    5.9113   10.8942 O.co2     1 <0>        -0.7464
     19 H2         -0.1021    2.2097   -1.8477 H         1 <0>         0.0753
     20 H3         -1.1539    0.7541   -1.8093 H         1 <0>         0.0777
     21 H4         -2.0785    3.3529   -1.2410 H         1 <0>         0.0854
     22 H5         -2.8534    1.8583   -0.6146 H         1 <0>         0.0849
     23 H6          0.0058   -0.0139   -0.0095 H         1 <0>         0.0835
     24 H7          1.0178    1.4702   -0.0111 H         1 <0>         0.0589
     25 H8         -3.1756    3.8653    1.3405 H         1 <0>         0.0810
     26 H9         -3.1580    2.1513    1.8776 H         1 <0>         0.0737
     27 H10        -0.9276    3.5315    3.2055 H         1 <0>         0.4191
     28 H11        -1.2760    4.2186    5.4092 H         1 <0>         0.4333
     29 H12        -1.5775    4.9416    7.7267 H         1 <0>         0.1414
     30 H13        -4.5903    5.1291    8.4240 H         1 <0>         0.1234
@<TRIPOS>BOND
     1    1    6 1
     2    1    2 1
     3    1   19 1
     4    1   20 1
     5    2    3 1
     6    2   21 1
     7    2   22 1
     8    3    4 1
     9    3    5 1
    10    3    7 1
    11    5    6 1
    12    6   23 1
    13    6   24 1
    14    7    8 1
    15    7   25 1
    16    7   26 1
    17    8    9 am
    18    8   27 1
    19    9   10 2
    20    9   11 am
    21   11   12 am
    22   11   28 1
    23   12   13 2
    24   12   14 1
    25   14   15 2
    26   14   29 1
    27   15   16 1
    28   15   30 1
    29   16   17 2
    30   16   18 1
@<TRIPOS>MOLECULE
ZINC37835917
   29    29     0     0     0
SMALL
USER_CHARGES

@<TRIPOS>ATOM
      1 C1         -0.0476    0.2807    0.1117 C.3       1 <0>        -0.1371
      2 C2          1.3661    0.8455   -0.0414 C.3       1 <0>        -0.1908
      3 H1          1.5101    1.6541   -0.7580 H         1 <0>         0.1062
      4 C3          1.0315   -0.5400   -0.5976 C.3       1 <0>        -0.1734
      5 H2          0.9553   -0.6429   -1.6800 H         1 <0>         0.1006
      6 C4          1.5882   -1.7356    0.1317 C.2       1 <0>         0.5201
      7 O1          0.8579   -2.4183    0.8296 O.co2     1 <0>        -0.6835
      8 O2          2.7688   -2.0201    0.0236 O.co2     1 <0>        -0.6920
      9 C5          2.2270    0.9106    1.1938 C.2       1 <0>         0.5542
     10 O3          1.8356    0.4214    2.2322 O.2       1 <0>        -0.5305
     11 N1          3.4318    1.5126    1.1445 N.am      1 <0>        -0.5982
     12 C6          4.2687    1.5759    2.3452 C.3       1 <0>         0.1273
     13 C7          5.1724    0.3427    2.4027 C.3       1 <0>         0.0571
     14 O4          6.0854    0.3696    1.3037 O.3       1 <0>        -0.5696
     15 C8          3.9046    2.1035   -0.1099 C.3       1 <0>         0.1170
     16 C9          3.4569    3.5646   -0.1860 C.3       1 <0>         0.0560
     17 O5          4.0966    4.3134    0.8494 O.3       1 <0>        -0.5668
     18 H3         -0.3548   -0.0442    1.1058 H         1 <0>         0.1065
     19 H4         -0.8336    0.7177   -0.5041 H         1 <0>         0.0882
     20 H5          4.8833    2.4755    2.3127 H         1 <0>         0.0859
     21 H6          3.6330    1.6020    3.2302 H         1 <0>         0.0878
     22 H7          5.7306    0.3445    3.3389 H         1 <0>         0.0448
     23 H8          4.5617   -0.5583    2.3456 H         1 <0>         0.0592
     24 H9          6.6906   -0.3842    1.2766 H         1 <0>         0.3745
     25 H10         4.9929    2.0547   -0.1471 H         1 <0>         0.0927
     26 H11         3.4871    1.5513   -0.9518 H         1 <0>         0.0933
     27 H12         3.7311    3.9786   -1.1563 H         1 <0>         0.0520
     28 H13         2.3756    3.6203   -0.0597 H         1 <0>         0.0462
     29 H14         3.8586    5.2506    0.8615 H         1 <0>         0.3721
@<TRIPOS>BOND
     1    1    4 1
     2    1    2 1
     3    1   18 1
     4    1   19 1
     5    2    3 1
     6    2    4 1
     7    2    9 1
     8    4    5 1
     9    4    6 1
    10    6    7 2
    11    6    8 1
    12    9   10 2
    13    9   11 am
    14   11   12 1
    15   11   15 1
    16   12   13 1
    17   12   20 1
    18   12   21 1
    19   13   14 1
    20   13   22 1
    21   13   23 1
    22   14   24 1
    23   15   16 1
    24   15   25 1
    25   15   26 1
    26   16   17 1
    27   16   27 1
    28   16   28 1
    29   17   29 1
@<TRIPOS>MOLECULE
ZINC40597964
   33    33     0     0     0
SMALL
USER_CHARGES

@<TRIPOS>ATOM
      1 C1         -0.0189    1.5449    0.0105 C.3       1 <0>        -0.1299
      2 C2          1.4966    1.8770   -0.0022 C.3       1 <0>        -0.1097
      3 C3          2.1046    0.7503    0.8595 C.3       1 <0>         0.0836
      4 H1          2.2497    1.1020    1.8809 H         1 <0>         0.0648
      5 N1          1.1532   -0.3705    0.8470 N.am      1 <0>        -0.6065
      6 C4          0.0021   -0.0041    0.0020 C.3       1 <0>         0.1034
      7 C5          1.3083   -1.5398    1.4991 C.2       1 <0>         0.7252
      8 O1          2.3036   -1.7345    2.1697 O.2       1 <0>        -0.5815
      9 N2          0.3600   -2.4932    1.4079 N.am      1 <0>        -0.7525
     10 C6          0.5286   -3.7641    2.1167 C.3       1 <0>         0.1413
     11 C7         -0.6805   -4.6623    1.8478 C.3       1 <0>        -0.1158
     12 C8         -0.5044   -5.9897    2.5881 C.3       1 <0>        -0.1392
     13 C9         -1.6953   -6.8744    2.3232 C.2       1 <0>         0.5173
     14 O2         -2.5961   -6.4819    1.6123 O.2       1 <0>        -0.5436
     15 N3         -1.7593   -8.1017    2.8763 N.am      1 <0>        -0.8597
     16 C10         3.4236    0.3137    0.2758 C.2       1 <0>         0.4987
     17 O3          4.4563    0.8571    0.6290 O.co2     1 <0>        -0.7004
     18 O4          3.4580   -0.5829   -0.5497 O.co2     1 <0>        -0.6865
     19 H2         -0.4945    1.9242    0.9150 H         1 <0>         0.0703
     20 H3         -0.5116    1.9338   -0.8806 H         1 <0>         0.0772
     21 H4          1.8908    1.8413   -1.0178 H         1 <0>         0.0734
     22 H5          1.6817    2.8512    0.4504 H         1 <0>         0.0750
     23 H6         -0.9211   -0.3983    0.4268 H         1 <0>         0.0617
     24 H7          0.1428   -0.3760   -1.0129 H         1 <0>         0.0638
     25 H8         -0.4340   -2.3378    0.8729 H         1 <0>         0.3908
     26 H9          1.4341   -4.2588    1.7654 H         1 <0>         0.0645
     27 H10         0.6099   -3.5751    3.1872 H         1 <0>         0.0619
     28 H11        -1.5859   -4.1676    2.1992 H         1 <0>         0.0750
     29 H12        -0.7617   -4.8513    0.7774 H         1 <0>         0.0767
     30 H13         0.4010   -6.4844    2.2367 H         1 <0>         0.1001
     31 H14        -0.4232   -5.8007    3.6585 H         1 <0>         0.0988
     32 H15        -1.0388   -8.4156    3.4449 H         1 <0>         0.4021
     33 H16        -2.5258   -8.6712    2.7058 H         1 <0>         0.3995
@<TRIPOS>BOND
     1    1    6 1
     2    1    2 1
     3    1   19 1
     4    1   20 1
     5    2    3 1
     6    2   21 1
     7    2   22 1
     8    3    4 1
     9    3    5 1
    10    3   16 1
    11    5    6 1
    12    5    7 am
    13    6   23 1
    14    6   24 1
    15    7    8 2
    16    7    9 am
    17    9   10 1
    18    9   25 1
    19   10   11 1
    20   10   26 1
    21   10   27 1
    22   11   12 1
    23   11   28 1
    24   11   29 1
    25   12   13 1
    26   12   30 1
    27   12   31 1
    28   13   14 2
    29   13   15 am
    30   15   32 1
    31   15   33 1
    32   16   17 2
    33   16   18 1
@<TRIPOS>MOLECULE
ZINC06358767
   36    36     0     0     0
SMALL
USER_CHARGES

@<TRIPOS>ATOM
      1 C1         -0.0187    1.5258    0.0104 C.3       1 <0>        -0.1399
      2 C2          0.0021   -0.0041    0.0020 C.3       1 <0>        -0.0894
      3 C3         -1.4333   -0.5336    0.0129 C.3       1 <0>        -0.1376
      4 C4          0.7182   -0.4975   -1.2568 C.3       1 <0>         0.0985
      5 H1          0.1910   -0.1364   -2.1398 H         1 <0>         0.0790
      6 C5          0.7386   -2.0043   -1.2651 C.2       1 <0>         0.4930
      7 O1         -0.1724   -2.6235   -1.7877 O.co2     1 <0>        -0.6947
      8 O2          1.6662   -2.6043   -0.7492 O.co2     1 <0>        -0.6944
      9 N1          2.0926    0.0096   -1.2672 N.am      1 <0>        -0.7108
     10 C6          2.7489    0.1537   -2.4355 C.2       1 <0>         0.7038
     11 O3          2.2003   -0.1372   -3.4809 O.2       1 <0>        -0.5970
     12 N2          4.0133    0.6202   -2.4451 N.am      1 <0>        -0.7481
     13 C7          4.7267    0.7767   -3.7150 C.3       1 <0>         0.1334
     14 C8          6.1322    1.3188   -3.4470 C.3       1 <0>         0.0691
     15 H2          6.0692    2.2355   -2.8607 H         1 <0>         0.0856
     16 C9          6.8486    1.6011   -4.7851 C.3       1 <0>        -0.1476
     17 C10         8.2994    1.1337   -4.4872 C.3       1 <0>        -0.1554
     18 C11         8.0344   -0.0577   -3.5327 C.3       1 <0>         0.0482
     19 O4          6.9032    0.3411   -2.7390 O.3       1 <0>        -0.3723
     20 H3          1.0039    1.9031    0.0027 H         1 <0>         0.0491
     21 H4         -0.5459    1.8868   -0.8726 H         1 <0>         0.0509
     22 H5         -0.5289    1.8773    0.9072 H         1 <0>         0.0481
     23 H6          0.5293   -0.3651    0.8851 H         1 <0>         0.0686
     24 H7         -1.9605   -0.1726   -0.8702 H         1 <0>         0.0520
     25 H8         -1.4185   -1.6235    0.0069 H         1 <0>         0.0713
     26 H9         -1.9435   -0.1821    0.9097 H         1 <0>         0.0443
     27 H10         2.5303    0.2417   -0.4332 H         1 <0>         0.3868
     28 H11         4.4510    0.8522   -1.6111 H         1 <0>         0.3939
     29 H12         4.7991   -0.1903   -4.2128 H         1 <0>         0.0663
     30 H13         4.1839    1.4741   -4.3531 H         1 <0>         0.0709
     31 H14         6.4097    1.0137   -5.5916 H         1 <0>         0.0832
     32 H15         6.8245    2.6650   -5.0210 H         1 <0>         0.0846
     33 H16         8.8006    0.8041   -5.3972 H         1 <0>         0.0830
     34 H17         8.8700    1.9172   -3.9885 H         1 <0>         0.0774
     35 H18         7.7987   -0.9553   -4.1044 H         1 <0>         0.0618
     36 H19         8.9009   -0.2313   -2.8946 H         1 <0>         0.0844
@<TRIPOS>BOND
     1    1    2 1
     2    1   20 1
     3    1   21 1
     4    1   22 1
     5    2    3 1
     6    2    4 1
     7    2   23 1
     8    3   24 1
     9    3   25 1
    10    3   26 1
    11    4    5 1
    12    4    6 1
    13    4    9 1
    14    6    7 2
    15    6    8 1
    16    9   10 am
    17    9   27 1
    18   10   11 2
    19   10   12 am
    20   12   13 1
    21   12   28 1
    22   13   14 1
    23   13   29 1
    24   13   30 1
    25   14   15 1
    26   14   19 1
    27   14   16 1
    28   16   17 1
    29   16   31 1
    30   16   32 1
    31   17   18 1
    32   17   33 1
    33   17   34 1
    34   18   19 1
    35   18   35 1
    36   18   36 1
@<TRIPOS>MOLECULE
ZINC42440092
   33    33     0     0     0
SMALL
USER_CHARGES

@<TRIPOS>ATOM
      1 C1         -0.0188    1.5384    0.0105 C.3       1 <0>        -0.1161
      2 C2          1.4774    1.9387   -0.0016 C.3       1 <0>        -0.1168
      3 C3          2.1065    0.8811   -0.9423 C.3       1 <0>        -0.1335
      4 C4          1.3534   -0.4220   -0.6038 C.3       1 <0>         0.1697
      5 C5          0.0021   -0.0041    0.0020 C.3       1 <0>        -0.1214
      6 N1          1.1362   -1.2069   -1.8215 N.am      1 <0>        -0.6126
      7 C6          1.6909   -2.5584   -1.9306 C.3       1 <0>         0.0889
      8 C7          0.6884   -3.5564   -1.4108 C.2       1 <0>         0.4922
      9 O1         -0.3838   -3.1761   -0.9905 O.2       1 <0>        -0.5229
     10 N2          0.9834   -4.8714   -1.4128 N.am      1 <0>        -0.8561
     11 C8          0.4260   -0.6856   -2.8415 C.2       1 <0>         0.7053
     12 O2         -0.0344    0.4361   -2.7510 O.2       1 <0>        -0.5865
     13 N3          0.2261   -1.4077   -3.9619 N.am      1 <0>        -0.7182
     14 C9         -0.5458   -0.8411   -5.0706 C.3       1 <0>         0.0708
     15 C10        -0.6216   -1.8430   -6.1937 C.2       1 <0>         0.4913
     16 O3         -0.0808   -2.9297   -6.0787 O.co2     1 <0>        -0.6951
     17 O4         -1.2236   -1.5670   -7.2173 O.co2     1 <0>        -0.6890
     18 H1         -0.5054    1.9084    0.9130 H         1 <0>         0.0526
     19 H2         -0.5225    1.9180   -0.8785 H         1 <0>         0.0780
     20 H3          1.6056    2.9420   -0.4079 H         1 <0>         0.0625
     21 H4          1.9042    1.8684    0.9989 H         1 <0>         0.0588
     22 H5          1.9461    1.1545   -1.9852 H         1 <0>         0.0848
     23 H6          3.1710    0.7713   -0.7351 H         1 <0>         0.0582
     24 H7          1.9228   -1.0050    0.1201 H         1 <0>         0.0808
     25 H8         -0.0844   -0.3843    1.0199 H         1 <0>         0.0547
     26 H9         -0.8154   -0.3852   -0.6101 H         1 <0>         0.0780
     27 H10         1.9128   -2.7769   -2.9752 H         1 <0>         0.1093
     28 H11         2.6067   -2.6238   -1.3432 H         1 <0>         0.1081
     29 H12         1.8410   -5.1756   -1.7489 H         1 <0>         0.4006
     30 H13         0.3382   -5.5138   -1.0782 H         1 <0>         0.4000
     31 H14         0.5934   -2.3026   -4.0341 H         1 <0>         0.3982
     32 H15        -1.5527   -0.6027   -4.7278 H         1 <0>         0.0625
     33 H16        -0.0585    0.0669   -5.4259 H         1 <0>         0.0631
@<TRIPOS>BOND
     1    1    5 1
     2    1    2 1
     3    1   18 1
     4    1   19 1
     5    2    3 1
     6    2   20 1
     7    2   21 1
     8    3    4 1
     9    3   22 1
    10    3   23 1
    11    4    5 1
    12    4    6 1
    13    4   24 1
    14    5   25 1
    15    5   26 1
    16    6    7 1
    17    6   11 am
    18    7    8 1
    19    7   27 1
    20    7   28 1
    21    8    9 2
    22    8   10 am
    23   10   29 1
    24   10   30 1
    25   11   12 2
    26   11   13 am
    27   13   14 1
    28   13   31 1
    29   14   15 1
    30   14   32 1
    31   14   33 1
    32   15   16 2
    33   15   17 1
@<TRIPOS>MOLECULE
ZINC21992735
   24    24     0     0     0
SMALL
USER_CHARGES
methyl (2R)-2-amino-2-(4-hydroxyphenyl)acetate
@<TRIPOS>ATOM
      1 C1          2.3672    1.1168   -0.0145 C.3       1 <0>         0.0321
      2 O1          1.1389    1.8910    0.0013 O.3       1 <0>        -0.3575
      3 C2         -0.0143    1.2041    0.0087 C.2       1 <0>         0.4721
      4 O2          0.0021   -0.0041    0.0020 O.2       1 <0>        -0.4949
      5 C3         -1.3295    1.9397    0.0189 C.3       1 <0>         0.1390
      6 H1         -1.2781    2.7983    0.7045 H         1 <0>         0.1233
      7 C4         -1.6541    2.4079   -1.3763 C.ar      1 <0>        -0.1762
      8 C5         -2.1890    1.5230   -2.2942 C.ar      1 <0>        -0.0668
      9 C6         -2.4927    1.9511   -3.5721 C.ar      1 <0>        -0.1599
     10 C7         -2.2495    3.2672   -3.9376 C.ar      1 <0>         0.1675
     11 C8         -1.7075    4.1516   -3.0164 C.ar      1 <0>        -0.2141
     12 C9         -1.4112    3.7201   -1.7379 C.ar      1 <0>        -0.0521
     13 O3         -2.5414    3.6891   -5.1960 O.3       1 <0>        -0.5086
     14 N1         -2.3900    1.0404    0.4927 N.3       1 <0>        -0.8094
     15 H2          3.2304    1.7987   -0.0192 H         1 <0>         0.1048
     16 H3          2.3923    0.4874   -0.9163 H         1 <0>         0.0639
     17 H4          2.4094    0.4779    0.8799 H         1 <0>         0.0659
     18 H5         -2.3733    0.4973   -2.0107 H         1 <0>         0.1299
     19 H6         -2.9149    1.2608   -4.2873 H         1 <0>         0.1324
     20 H7         -1.5169    5.1765   -3.2986 H         1 <0>         0.1313
     21 H8         -0.9892    4.4083   -1.0204 H         1 <0>         0.1308
     22 H9         -2.3482    4.7328   -5.4849 H         1 <0>         0.4370
     23 H10        -3.3500    1.5774    0.5001 H         1 <0>         0.3587
     24 H11        -2.4610    0.1717   -0.1783 H         1 <0>         0.3510
@<TRIPOS>BOND
     1    1    2 1
     2    1   15 1
     3    1   16 1
     4    1   17 1
     5    2    3 1
     6    3    4 2
     7    3    5 1
     8    5    6 1
     9    5    7 1
    10    5   14 1
    11    7   12 ar
    12    7    8 ar
    13    8    9 ar
    14    8   18 1
    15    9   10 ar
    16    9   19 1
    17   10   11 ar
    18   10   13 1
    19   11   12 ar
    20   11   20 1
    21   12   21 1
    22   13   22 1
    23   14   23 1
    24   14   24 1
@<TRIPOS>MOLECULE
ZINC40471480
   30    30     0     0     0
SMALL
USER_CHARGES

@<TRIPOS>ATOM
      1 C1         -0.0187    1.5262    0.0104 C.3       1 <0>        -0.1080
      2 C2          1.4200    2.0524   -0.0005 C.3       1 <0>         0.1075
      3 N1          2.1298    1.4649   -1.1449 N.am      1 <0>        -0.5903
      4 C3          2.1347    0.0037   -1.2986 C.3       1 <0>         0.1004
      5 C4          0.6880   -0.4996   -1.2731 C.3       1 <0>        -0.1088
      6 C5          0.0021   -0.0041    0.0020 C.3       1 <0>        -0.1587
      7 C6         -1.4111   -0.5256    0.0471 C.2       1 <0>         0.4933
      8 O1         -1.6844   -1.5918   -0.4773 O.co2     1 <0>        -0.6969
      9 O2         -2.2811    0.1187    0.6079 O.co2     1 <0>        -0.6921
     10 C7          2.7640    2.2513   -2.0369 C.2       1 <0>         0.5141
     11 O3          2.7523    3.4562   -1.8991 O.2       1 <0>        -0.5495
     12 C8          3.4877    1.6335   -3.2055 C.3       1 <0>        -0.1768
     13 C9          4.1164    2.7378   -4.0576 C.3       1 <0>         0.0080
     14 N2          4.8219    2.1356   -5.1968 N.4       1 <0>        -0.6364
     15 H1         -0.5280    1.8782    0.9075 H         1 <0>         0.0862
     16 H2         -0.5450    1.8877   -0.8729 H         1 <0>         0.0586
     17 H3          1.4111    3.1384   -0.0944 H         1 <0>         0.0909
     18 H4          1.9202    1.7677    0.9251 H         1 <0>         0.0713
     19 H5          2.5974   -0.2622   -2.2490 H         1 <0>         0.0735
     20 H6          2.6932   -0.4481   -0.4789 H         1 <0>         0.0756
     21 H7          0.1550   -0.1190   -2.1444 H         1 <0>         0.0589
     22 H8          0.6816   -1.5895   -1.2897 H         1 <0>         0.0856
     23 H9          0.5499   -0.3646    0.8726 H         1 <0>         0.0667
     24 H10         4.2693    0.9684   -2.8384 H         1 <0>         0.1156
     25 H11         2.7816    1.0651   -3.8108 H         1 <0>         0.1178
     26 H12         3.3348    3.4030   -4.4247 H         1 <0>         0.1426
     27 H13         4.8226    3.3062   -3.4523 H         1 <0>         0.1419
     28 H14         4.1682    1.6094   -5.7571 H         1 <0>         0.4353
     29 H15         5.2365    2.8639   -5.7587 H         1 <0>         0.4398
     30 H16         5.5454    1.5199   -4.8569 H         1 <0>         0.4339
@<TRIPOS>BOND
     1    1    6 1
     2    1    2 1
     3    1   15 1
     4    1   16 1
     5    2    3 1
     6    2   17 1
     7    2   18 1
     8    3    4 1
     9    3   10 am
    10    4    5 1
    11    4   19 1
    12    4   20 1
    13    5    6 1
    14    5   21 1
    15    5   22 1
    16    6    7 1
    17    6   23 1
    18    7    8 2
    19    7    9 1
    20   10   11 2
    21   10   12 1
    22   12   13 1
    23   12   24 1
    24   12   25 1
    25   13   14 1
    26   13   26 1
    27   13   27 1
    28   14   28 1
    29   14   29 1
    30   14   30 1
@<TRIPOS>MOLECULE
ZINC45377578
   38    38     0     0     0
SMALL
USER_CHARGES

@<TRIPOS>ATOM
      1 C1         -0.0187    1.5258    0.0104 C.3       1 <0>        -0.1473
      2 C2          0.0021   -0.0041    0.0020 C.3       1 <0>         0.0892
      3 H1         -1.0203   -0.3820    0.0097 H         1 <0>         0.0683
      4 C3          0.7204   -0.4987   -1.2562 C.3       1 <0>         0.0227
      5 N1          0.8053   -1.9659   -1.2210 N.3       1 <0>        -0.5381
      6 C4          1.5233   -2.4175   -0.0203 C.3       1 <0>         0.0138
      7 C5          0.7969   -1.9037    1.2256 C.3       1 <0>         0.0635
      8 O1          0.6954   -0.4786    1.1594 O.3       1 <0>        -0.3813
      9 C6          1.4389   -2.4860   -2.4400 C.3       1 <0>         0.0549
     10 C7          1.2870   -4.0078   -2.4843 C.3       1 <0>        -0.1317
     11 C8          1.9469   -4.5496   -3.7539 C.3       1 <0>        -0.1181
     12 C9          1.7950   -6.0713   -3.7981 C.3       1 <0>        -0.0194
     13 C10         0.3138   -6.4325   -3.9261 C.3       1 <0>        -0.1543
     14 C11         2.5494   -6.6172   -4.9830 C.2       1 <0>         0.4973
     15 O2          3.4539   -7.4172   -4.8140 O.co2     1 <0>        -0.6742
     16 O3          2.2552   -6.2590   -6.1107 O.co2     1 <0>        -0.6312
     17 N2          2.3360   -6.6536   -2.5627 N.4       1 <0>        -0.6122
     18 H2          1.0039    1.9031    0.0027 H         1 <0>         0.0634
     19 H3         -0.5459    1.8868   -0.8726 H         1 <0>         0.0745
     20 H4         -0.5289    1.8773    0.9072 H         1 <0>         0.0685
     21 H5          0.1630   -0.1875   -2.1397 H         1 <0>         0.0890
     22 H6          1.7248   -0.0767   -1.2915 H         1 <0>         0.0457
     23 H7          1.5520   -3.5070   -0.0015 H         1 <0>         0.0826
     24 H8          2.5406   -2.0263   -0.0358 H         1 <0>         0.0445
     25 H9         -0.2021   -2.3374    1.2693 H         1 <0>         0.0596
     26 H10         1.3570   -2.1876    2.1166 H         1 <0>         0.0987
     27 H11         0.9586   -2.0474   -3.3147 H         1 <0>         0.0852
     28 H12         2.4975   -2.2265   -2.4384 H         1 <0>         0.0405
     29 H13         1.7673   -4.4465   -1.6096 H         1 <0>         0.0518
     30 H14         0.2284   -4.2674   -2.4859 H         1 <0>         0.0875
     31 H15         1.4666   -4.1109   -4.6285 H         1 <0>         0.1109
     32 H16         3.0055   -4.2900   -3.7523 H         1 <0>         0.0798
     33 H17        -0.0877   -6.0005   -4.8428 H         1 <0>         0.1037
     34 H18         0.2056   -7.5167   -3.9577 H         1 <0>         0.0714
     35 H19        -0.2319   -6.0377   -3.0691 H         1 <0>         0.0691
     36 H20         1.8309   -6.2881   -1.7694 H         1 <0>         0.4099
     37 H21         2.2358   -7.6572   -2.5919 H         1 <0>         0.4314
     38 H22         3.3128   -6.4154   -2.4783 H         1 <0>         0.4303
@<TRIPOS>BOND
     1    1    2 1
     2    1   18 1
     3    1   19 1
     4    1   20 1
     5    2    3 1
     6    2    8 1
     7    2    4 1
     8    4    5 1
     9    4   21 1
    10    4   22 1
    11    5    6 1
    12    5    9 1
    13    6    7 1
    14    6   23 1
    15    6   24 1
    16    7    8 1
    17    7   25 1
    18    7   26 1
    19    9   10 1
    20    9   27 1
    21    9   28 1
    22   10   11 1
    23   10   29 1
    24   10   30 1
    25   11   12 1
    26   11   31 1
    27   11   32 1
    28   12   13 1
    29   12   14 1
    30   12   17 1
    31   13   33 1
    32   13   34 1
    33   13   35 1
    34   14   15 2
    35   14   16 1
    36   17   36 1
    37   17   37 1
    38   17   38 1
@<TRIPOS>MOLECULE
ZINC51395278
   31    31     0     0     0
SMALL
USER_CHARGES

@<TRIPOS>ATOM
      1 C1         -1.4796   -0.2031    0.2424 C.3       1 <0>        -0.0565
      2 N1         -0.0705    0.1960    0.1282 N.4       1 <0>        -0.3711
      3 C2          0.6939   -0.3820    1.2416 C.3       1 <0>         0.0036
      4 C3          2.1256    0.1565    1.2111 C.3       1 <0>         0.0318
      5 H1          2.6110   -0.1000    0.2695 H         1 <0>         0.0810
      6 C4          2.9399   -0.3897    2.4115 C.3       1 <0>        -0.1390
      7 C5          4.0375    0.6894    2.5768 C.3       1 <0>        -0.1313
      8 C6          3.4528    1.9328    1.8790 C.3       1 <0>         0.0122
      9 H2          4.0796    2.2114    1.0319 H         1 <0>         0.0693
     10 O1          2.1357    1.5858    1.4154 O.3       1 <0>        -0.3536
     11 C7          3.3725    3.0780    2.8553 C.2       1 <0>         0.4964
     12 O2          4.3934    3.5557    3.3200 O.co2     1 <0>        -0.6791
     13 O3          2.2865    3.5268    3.1804 O.co2     1 <0>        -0.6755
     14 C8          0.4749   -0.2919   -1.1456 C.3       1 <0>        -0.0371
     15 C9         -0.2277    0.3943   -2.2886 C.2       1 <0>         0.5111
     16 O4         -1.0971    1.2096   -2.0642 O.2       1 <0>        -0.5251
     17 N2          0.1101    0.1021   -3.5602 N.am      1 <0>        -0.8291
     18 H3         -1.8518    0.0572    1.2333 H         1 <0>         0.1271
     19 H4         -2.0670    0.3169   -0.5144 H         1 <0>         0.1375
     20 H5         -1.5657   -1.2794    0.0931 H         1 <0>         0.1156
     21 H6          0.2230   -0.1090    2.1859 H         1 <0>         0.1450
     22 H7          0.7119   -1.4676    1.1450 H         1 <0>         0.1381
     23 H8          2.3196   -0.4537    3.3054 H         1 <0>         0.0852
     24 H9          3.3796   -1.3586    2.1746 H         1 <0>         0.0849
     25 H10         4.2163    0.8932    3.6326 H         1 <0>         0.0878
     26 H11         4.9588    0.3748    2.0867 H         1 <0>         0.0746
     27 H12         1.5418   -0.0737   -1.1914 H         1 <0>         0.1599
     28 H13         0.3208   -1.3685   -1.2182 H         1 <0>         0.1585
     29 H14         0.8055   -0.5499   -3.7396 H         1 <0>         0.4119
     30 H15        -0.3421    0.5439   -4.2959 H         1 <0>         0.4212
     31 H16        -0.0022    1.2021    0.1599 H         1 <0>         0.4446
@<TRIPOS>BOND
     1    1    2 1
     2    1   18 1
     3    1   19 1
     4    1   20 1
     5    2    3 1
     6    2   14 1
     7    2   31 1
     8    3    4 1
     9    3   21 1
    10    3   22 1
    11    4    5 1
    12    4   10 1
    13    4    6 1
    14    6    7 1
    15    6   23 1
    16    6   24 1
    17    7    8 1
    18    7   25 1
    19    7   26 1
    20    8    9 1
    21    8   10 1
    22    8   11 1
    23   11   12 2
    24   11   13 1
    25   14   15 1
    26   14   27 1
    27   14   28 1
    28   15   16 2
    29   15   17 am
    30   17   29 1
    31   17   30 1
@<TRIPOS>MOLECULE
ZINC61843355
   19    19     0     0     0
SMALL
USER_CHARGES

@<TRIPOS>ATOM
      1 C1         -0.0162    1.3414    0.0094 C.2       1 <0>         0.2061
      2 N1          1.2256    1.7550   -0.0002 N.2       1 <0>        -0.4899
      3 C2          2.0106    0.6617   -0.0136 C.2       1 <0>         0.1570
      4 N2          1.2292   -0.3967   -0.0118 N.2       1 <0>        -0.2204
      5 N3          0.0021   -0.0041    0.0020 N.pl3     1 <0>        -0.2938
      6 C3         -1.1753   -0.8759    0.0090 C.3       1 <0>         0.1188
      7 C4         -1.1045   -1.8379   -1.1786 C.3       1 <0>         0.0644
      8 O1         -2.2530   -2.6883   -1.1717 O.3       1 <0>        -0.5681
      9 C5          3.4870    0.6520   -0.0282 C.2       1 <0>         0.4402
     10 S1          4.3331   -0.8362   -0.0448 S.2       1 <0>        -0.4995
     11 N4          4.1685    1.8147   -0.0284 N.pl3     1 <0>        -0.7444
     12 H1         -0.8964    1.9669    0.0252 H         1 <0>         0.2327
     13 H2         -1.1996   -1.4461    0.9376 H         1 <0>         0.1125
     14 H3         -2.0773   -0.2689   -0.0684 H         1 <0>         0.1222
     15 H4         -1.0802   -1.2677   -2.1072 H         1 <0>         0.0551
     16 H5         -0.2025   -2.4449   -1.1012 H         1 <0>         0.0703
     17 H6         -2.2747   -3.3257   -1.8986 H         1 <0>         0.3953
     18 H7          3.6891    2.6579   -0.0190 H         1 <0>         0.4124
     19 H8          5.1385    1.8083   -0.0380 H         1 <0>         0.4291
@<TRIPOS>BOND
     1    1    5 1
     2    1    2 2
     3    1   12 1
     4    2    3 1
     5    3    4 2
     6    3    9 1
     7    4    5 1
     8    5    6 1
     9    6    7 1
    10    6   13 1
    11    6   14 1
    12    7    8 1
    13    7   15 1
    14    7   16 1
    15    8   17 1
    16    9   10 2
    17    9   11 1
    18   11   18 1
    19   11   19 1
@<TRIPOS>MOLECULE
ZINC06066702
   55    59     0     0     0
SMALL
USER_CHARGES
hydroxy-(2-hydroxyacetyl)-trimethyl-BLAHone
@<TRIPOS>ATOM
      1 C1          2.3512    1.4229    3.1092 C.3       1 <0>        -0.1676
      2 C2          0.9508    2.0388    3.0873 C.3       1 <0>        -0.1069
      3 H1          0.6613    2.3460    4.0922 H         1 <0>         0.0910
      4 C3          0.9209    3.2563    2.1302 C.3       1 <0>        -0.1096
      5 C4         -0.4681    3.1635    1.4755 C.3       1 <0>        -0.0784
      6 H2         -1.2371    3.5289    2.1560 H         1 <0>         0.0918
      7 C5         -0.5380    3.8770    0.1279 C.3       1 <0>        -0.0501
      8 H3          0.3471    3.5940   -0.4419 H         1 <0>         0.0894
      9 C6         -0.4462    5.3622    0.3807 C.3       1 <0>        -0.1090
     10 C7         -0.8542    6.2404   -0.7656 C.3       1 <0>        -0.0899
     11 C8         -2.1819    5.8161   -1.3280 C.2       1 <0>        -0.0288
     12 C9         -3.0705    6.7748   -1.6304 C.2       1 <0>        -0.2240
     13 C10        -4.3677    6.3615   -2.2063 C.2       1 <0>         0.4072
     14 O1         -4.9905    7.0822   -2.9635 O.2       1 <0>        -0.4480
     15 C11        -4.8695    5.0261   -1.8138 C.2       1 <0>        -0.2078
     16 C12        -3.9704    4.1042   -1.4896 C.2       1 <0>        -0.0923
     17 C13        -2.4942    4.3824   -1.5654 C.3       1 <0>         0.0110
     18 C14        -1.7584    3.4059   -0.6447 C.3       1 <0>         0.0575
     19 C15        -2.5342    2.1667   -0.2021 C.3       1 <0>         0.0116
     20 H4         -3.5927    2.1178   -0.4573 H         1 <0>         0.1278
     21 O2         -1.5912    2.1051   -1.2775 O.3       1 <0>        -0.3496
     22 C16        -2.1167    1.3793    1.0505 C.3       1 <0>        -0.0886
     23 C17        -0.6240    1.6395    1.2447 C.3       1 <0>        -0.0388
     24 C18        -0.0677    1.0193    2.5309 C.3       1 <0>         0.1068
     25 C19         0.6179   -0.2870    2.2232 C.2       1 <0>         0.3275
     26 O3          1.5605   -0.3111    1.4688 O.2       1 <0>        -0.4005
     27 C20         0.1272   -1.5631    2.8571 C.3       1 <0>         0.0361
     28 O4          0.9332   -2.6563    2.4127 O.3       1 <0>        -0.5552
     29 O5         -1.1216    0.8116    3.4733 O.3       1 <0>        -0.5404
     30 C21         0.1757    1.1811    0.0235 C.3       1 <0>        -0.1738
     31 C22        -2.0563    4.0603   -2.9956 C.3       1 <0>        -0.1347
     32 H5          2.6411    1.1435    2.0963 H         1 <0>         0.0862
     33 H6          3.0616    2.1497    3.5030 H         1 <0>         0.0617
     34 H7          2.3485    0.5367    3.7438 H         1 <0>         0.0497
     35 H8          1.0203    4.1867    2.6893 H         1 <0>         0.0757
     36 H9          1.7077    3.1746    1.3803 H         1 <0>         0.0766
     37 H10        -1.0916    5.6076    1.2242 H         1 <0>         0.0677
     38 H11         0.5804    5.6006    0.6587 H         1 <0>         0.0803
     39 H12        -0.0936    6.1627   -1.5426 H         1 <0>         0.0834
     40 H13        -0.9204    7.2754   -0.4302 H         1 <0>         0.0892
     41 H14        -2.8451    7.8169   -1.4580 H         1 <0>         0.1476
     42 H15        -5.9280    4.8138   -1.7816 H         1 <0>         0.1481
     43 H16        -4.3102    3.1279   -1.1769 H         1 <0>         0.1381
     44 H17        -2.2967    0.3118    0.9234 H         1 <0>         0.0803
     45 H18        -2.6761    1.7544    1.9075 H         1 <0>         0.0964
     46 H19         0.1891   -1.4862    3.8522 H         1 <0>         0.0689
     47 H20        -0.9099   -1.7361    2.5698 H         1 <0>         0.0831
     48 H21         0.6738   -3.5117    2.7816 H         1 <0>         0.3863
     49 H22        -0.8309    0.4208    4.3087 H         1 <0>         0.3786
     50 H23        -0.1942    0.2116   -0.3101 H         1 <0>         0.0503
     51 H24         1.2292    1.0958    0.2902 H         1 <0>         0.0784
     52 H25         0.0620    1.9093   -0.7795 H         1 <0>         0.1012
     53 H26        -2.3219    3.0304   -3.2336 H         1 <0>         0.0790
     54 H27        -2.5578    4.7347   -3.6897 H         1 <0>         0.0610
     55 H28        -0.9771    4.1865   -3.0822 H         1 <0>         0.0687
@<TRIPOS>BOND
     1    1    2 1
     2    1   32 1
     3    1   33 1
     4    1   34 1
     5    2    3 1
     6    2   24 1
     7    2    4 1
     8    4    5 1
     9    4   35 1
    10    4   36 1
    11    5    6 1
    12    5   23 1
    13    5    7 1
    14    7    8 1
    15    7   18 1
    16    7    9 1
    17    9   10 1
    18    9   37 1
    19    9   38 1
    20   10   11 1
    21   10   39 1
    22   10   40 1
    23   11   17 1
    24   11   12 2
    25   12   13 1
    26   12   41 1
    27   13   14 2
    28   13   15 1
    29   15   16 2
    30   15   42 1
    31   16   17 1
    32   16   43 1
    33   17   18 1
    34   17   31 1
    35   18   21 1
    36   18   19 1
    37   19   20 1
    38   19   21 1
    39   19   22 1
    40   22   23 1
    41   22   44 1
    42   22   45 1
    43   23   24 1
    44   23   30 1
    45   24   25 1
    46   24   29 1
    47   25   26 2
    48   25   27 1
    49   27   28 1
    50   27   46 1
    51   27   47 1
    52   28   48 1
    53   29   49 1
    54   30   50 1
    55   30   51 1
    56   30   52 1
    57   31   53 1
    58   31   54 1
    59   31   55 1
@<TRIPOS>MOLECULE
ZINC38012264
   30    31     0     0     0
SMALL
USER_CHARGES

@<TRIPOS>ATOM
      1 C1         -0.0184    1.5028    0.0103 C.3       1 <0>        -0.0795
      2 C2          0.0021   -0.0041    0.0020 C.2       1 <0>         0.0921
      3 C3          0.0080   -0.8179   -1.1355 C.2       1 <0>        -0.2567
      4 C4          0.0279   -2.1072   -0.7249 C.2       1 <0>         0.0875
      5 N1          0.0343   -2.1090    0.6245 N.pl3     1 <0>        -0.4732
      6 H1          0.0479   -2.8941    1.1941 H         1 <0>         0.4433
      7 N2          0.0231   -0.7768    1.0576 N.2       1 <0>        -0.2920
      8 C5         -0.0061   -0.3430   -2.5656 C.3       1 <0>         0.1967
      9 N3          1.3465    0.0581   -2.9603 N.pl3     1 <0>        -1.1111
     10 S1          1.7139    0.2678   -4.5614 S.o2      1 <0>         2.6936
     11 O1          3.0739    0.6762   -4.6159 O.2       1 <0>        -0.9533
     12 O2          1.2367   -0.8847   -5.2419 O.2       1 <0>        -0.9511
     13 C6          0.7560    1.6281   -5.1418 C.ar      1 <0>        -0.6629
     14 C7         -0.5051    1.4119   -5.6652 C.ar      1 <0>        -0.0166
     15 C8         -1.2567    2.4787   -6.1207 C.ar      1 <0>        -0.1061
     16 C9         -0.7471    3.7625   -6.0527 C.ar      1 <0>        -0.0503
     17 C10         0.5146    3.9785   -5.5290 C.ar      1 <0>        -0.1062
     18 C11         1.2635    2.9119   -5.0686 C.ar      1 <0>        -0.0125
     19 I1         -1.8857    5.3797   -6.7435 I         1 <0>        -0.0236
     20 H2          1.0042    1.8801    0.0026 H         1 <0>         0.0801
     21 H3         -0.5455    1.8639   -0.8728 H         1 <0>         0.0789
     22 H4         -0.5286    1.8543    0.9071 H         1 <0>         0.0757
     23 H5          0.0366   -2.9785   -1.3629 H         1 <0>         0.1819
     24 H6         -0.3493   -1.1499   -3.2131 H         1 <0>         0.0876
     25 H7         -0.6795    0.5090   -2.6589 H         1 <0>         0.0738
     26 H8          2.0269    0.2008   -2.2839 H         1 <0>         0.4215
     27 H9         -0.9029    0.4092   -5.7186 H         1 <0>         0.1502
     28 H10        -2.2418    2.3097   -6.5299 H         1 <0>         0.1411
     29 H11         0.9128    4.9810   -5.4758 H         1 <0>         0.1410
     30 H12         2.2468    3.0810   -4.6552 H         1 <0>         0.1500
@<TRIPOS>BOND
     1    1    2 1
     2    1   20 1
     3    1   21 1
     4    1   22 1
     5    2    7 2
     6    2    3 1
     7    3    4 2
     8    3    8 1
     9    4    5 1
    10    4   23 1
    11    5    6 1
    12    5    7 1
    13    8    9 1
    14    8   24 1
    15    8   25 1
    16    9   10 1
    17    9   26 1
    18   10   11 2
    19   10   12 2
    20   10   13 1
    21   13   18 ar
    22   13   14 ar
    23   14   15 ar
    24   14   27 1
    25   15   16 ar
    26   15   28 1
    27   16   17 ar
    28   16   19 1
    29   17   18 ar
    30   17   29 1
    31   18   30 1
@<TRIPOS>MOLECULE
ZINC48489867
   34    35     0     0     0
SMALL
USER_CHARGES

@<TRIPOS>ATOM
      1 C1          0.0648    1.2433   -0.6206 C.ar      1 <0>        -0.0601
      2 C2          1.2501    1.9526   -0.6187 C.ar      1 <0>        -0.1140
      3 C3          2.3817    1.4100   -0.0241 C.ar      1 <0>         0.1720
      4 C4          2.3178    0.1534    0.5679 C.ar      1 <0>        -0.0626
      5 C5          1.1291   -0.5510    0.5626 C.ar      1 <0>        -0.0579
      6 C6          0.0037   -0.0068   -0.0310 C.ar      1 <0>        -0.0984
      7 Br1        -1.6215   -0.9737   -0.0356 Br        1 <0>        -0.0317
      8 Cl1         3.7296   -0.5297    1.3120 Cl        1 <0>        -0.0458
      9 N1          3.5827    2.1254   -0.0212 N.am      1 <0>        -0.6406
     10 C7          3.5665    3.4698   -0.1160 C.2       1 <0>         0.5126
     11 O1          2.5096    4.0664   -0.1029 O.2       1 <0>        -0.4882
     12 C8          4.8491    4.2253   -0.2372 C.2       1 <0>         0.5109
     13 O2          5.9059    3.6287   -0.2503 O.2       1 <0>        -0.5124
     14 N2          4.8329    5.5696   -0.3321 N.am      1 <0>        -0.6887
     15 C9          6.0910    6.3107   -0.4509 C.3       1 <0>         0.1193
     16 C10         5.7938    7.8088   -0.5420 C.3       1 <0>         0.0654
     17 H1          5.2551    8.1416    0.3453 H         1 <0>         0.0828
     18 C11         7.1105    8.6094   -0.7036 C.3       1 <0>        -0.1480
     19 C12         6.5897    9.8957   -1.4008 C.3       1 <0>        -0.1559
     20 C13         5.4436    9.3507   -2.2799 C.3       1 <0>         0.0498
     21 O3          5.0309    8.0947   -1.7250 O.3       1 <0>        -0.3778
     22 H2         -0.8165    1.6670   -1.0790 H         1 <0>         0.1469
     23 H3          1.2968    2.9282   -1.0796 H         1 <0>         0.1644
     24 H4          1.0784   -1.5272    1.0218 H         1 <0>         0.1507
     25 H5          4.4277    1.6543    0.0492 H         1 <0>         0.4281
     26 H6          3.9883    6.0464   -0.3216 H         1 <0>         0.4188
     27 H7          6.7115    6.1159    0.4238 H         1 <0>         0.0907
     28 H8          6.6183    5.9896   -1.3493 H         1 <0>         0.0840
     29 H9          7.5519    8.8395    0.2661 H         1 <0>         0.0899
     30 H10         7.8184    8.0773   -1.3390 H         1 <0>         0.0852
     31 H11         6.2112   10.6082   -0.6678 H         1 <0>         0.0797
     32 H12         7.3690   10.3467   -2.0151 H         1 <0>         0.0864
     33 H13         4.6071   10.0496   -2.2719 H         1 <0>         0.0719
     34 H14         5.7970    9.2068   -3.3009 H         1 <0>         0.0723
@<TRIPOS>BOND
     1    1    6 ar
     2    1    2 ar
     3    1   22 1
     4    2    3 ar
     5    2   23 1
     6    3    4 ar
     7    3    9 1
     8    4    5 ar
     9    4    8 1
    10    5    6 ar
    11    5   24 1
    12    6    7 1
    13    9   10 am
    14    9   25 1
    15   10   11 2
    16   10   12 1
    17   12   13 2
    18   12   14 am
    19   14   15 1
    20   14   26 1
    21   15   16 1
    22   15   27 1
    23   15   28 1
    24   16   17 1
    25   16   21 1
    26   16   18 1
    27   18   19 1
    28   18   29 1
    29   18   30 1
    30   19   20 1
    31   19   31 1
    32   19   32 1
    33   20   21 1
    34   20   33 1
    35   20   34 1
@<TRIPOS>MOLECULE
ZINC56599082
   44    46     0     0     0
SMALL
USER_CHARGES

@<TRIPOS>ATOM
      1 C1          0.0790   -1.0960   -0.9881 C.1       1 <0>        -0.1715
      2 C2          0.0523    0.0470   -0.7216 C.1       1 <0>        -0.1517
      3 C3          0.0196    1.4413   -0.3966 C.ar      1 <0>         0.0296
      4 C4         -1.1994    2.0735   -0.1460 C.ar      1 <0>        -0.1161
      5 C5         -1.2282    3.4172    0.1670 C.ar      1 <0>        -0.0965
      6 C6         -0.0525    4.1413    0.2336 C.ar      1 <0>        -0.1327
      7 C7          1.1658    3.5211   -0.0142 C.ar      1 <0>         0.1648
      8 C8          1.2057    2.1703   -0.3237 C.ar      1 <0>        -0.1325
      9 N1          2.3534    4.2586    0.0544 N.am      1 <0>        -0.6817
     10 C9          2.3256    5.5968   -0.1036 C.2       1 <0>         0.7110
     11 O1          1.2608    6.1824   -0.1429 O.2       1 <0>        -0.5642
     12 N2          3.4783    6.2859   -0.2181 N.am      1 <0>        -0.6252
     13 C10         4.7605    5.5822   -0.3575 C.3       1 <0>         0.1124
     14 C11         5.4803    6.1109   -1.6021 C.3       1 <0>        -0.1426
     15 C12         5.6060    7.6331   -1.5057 C.3       1 <0>         0.1477
     16 C13         4.2107    8.2595   -1.4521 C.3       1 <0>        -0.1453
     17 C14         3.4758    7.7552   -0.2120 C.3       1 <0>         0.1311
     18 N3          6.3233    8.1388   -2.6787 N.am      1 <0>        -0.7245
     19 C15         6.9904    9.3078   -2.6084 C.2       1 <0>         0.5769
     20 O2          6.9969    9.9429   -1.5710 O.2       1 <0>        -0.5347
     21 C16         7.7111    9.8159   -3.7869 C.2       1 <0>        -0.1865
     22 C17         8.4406   11.0602   -3.7476 C.2       1 <0>        -0.1051
     23 C18         9.0577   11.4136   -4.8929 C.2       1 <0>        -0.2096
     24 S1          8.6520   10.0791   -5.9982 S.3       1 <0>         0.1939
     25 C19         7.7255    9.1234   -4.9768 C.2       1 <0>        -0.2144
     26 H1          0.1029   -2.1183   -1.2264 H         1 <0>         0.2251
     27 H2         -2.1200    1.5111   -0.1974 H         1 <0>         0.1269
     28 H3         -2.1723    3.9047    0.3602 H         1 <0>         0.1321
     29 H4         -0.0812    5.1928    0.4787 H         1 <0>         0.1685
     30 H5          2.1521    1.6854   -0.5123 H         1 <0>         0.1273
     31 H6          3.1964    3.8067    0.2157 H         1 <0>         0.4076
     32 H7          5.3746    5.7635    0.5245 H         1 <0>         0.0799
     33 H8          4.5803    4.5127   -0.4663 H         1 <0>         0.0832
     34 H9          6.4739    5.6670   -1.6638 H         1 <0>         0.0867
     35 H10         4.9083    5.8487   -2.4922 H         1 <0>         0.0758
     36 H11         6.1568    7.8955   -0.6025 H         1 <0>         0.0941
     37 H12         4.3007    9.3449   -1.4071 H         1 <0>         0.0853
     38 H13         3.6506    7.9771   -2.3436 H         1 <0>         0.0707
     39 H14         2.4484    8.1189   -0.2247 H         1 <0>         0.1014
     40 H15         3.9829    8.1177    0.6822 H         1 <0>         0.0735
     41 H16         6.3181    7.6324   -3.5060 H         1 <0>         0.3982
     42 H17         8.4889   11.6698   -2.8574 H         1 <0>         0.1517
     43 H18         9.6532   12.2925   -5.0914 H         1 <0>         0.1918
     44 H19         7.2480    8.1812   -5.2018 H         1 <0>         0.1877
@<TRIPOS>BOND
     1    1    2 3
     2    1   26 1
     3    2    3 1
     4    3    8 ar
     5    3    4 ar
     6    4    5 ar
     7    4   27 1
     8    5    6 ar
     9    5   28 1
    10    6    7 ar
    11    6   29 1
    12    7    8 ar
    13    7    9 1
    14    8   30 1
    15    9   10 am
    16    9   31 1
    17   10   11 2
    18   10   12 am
    19   12   17 1
    20   12   13 1
    21   13   14 1
    22   13   32 1
    23   13   33 1
    24   14   15 1
    25   14   34 1
    26   14   35 1
    27   15   16 1
    28   15   18 1
    29   15   36 1
    30   16   17 1
    31   16   37 1
    32   16   38 1
    33   17   39 1
    34   17   40 1
    35   18   19 am
    36   18   41 1
    37   19   20 2
    38   19   21 1
    39   21   25 2
    40   21   22 1
    41   22   23 2
    42   22   42 1
    43   23   24 1
    44   23   43 1
    45   24   25 1
    46   25   44 1
@<TRIPOS>MOLECULE
ZINC63654561
   43    45     0     0     0
SMALL
USER_CHARGES

@<TRIPOS>ATOM
      1 C1         -0.0184    1.5028    0.0103 C.3       1 <0>        -0.1028
      2 C2          0.0021   -0.0041    0.0020 C.2       1 <0>         0.1358
      3 C3          0.0078   -0.7691   -1.1015 C.2       1 <0>        -0.1770
      4 C4          0.0287   -2.1645   -0.6551 C.ar      1 <0>        -0.0789
      5 C5          0.0426   -3.3944   -1.3160 C.ar      1 <0>        -0.0681
      6 C6          0.0613   -4.5531   -0.5923 C.ar      1 <0>        -0.1389
      7 C7          0.0662   -4.5177    0.7956 C.ar      1 <0>        -0.0946
      8 C8          0.0527   -3.3155    1.4678 C.ar      1 <0>        -0.1253
      9 C9          0.0340   -2.1231    0.7510 C.ar      1 <0>         0.1117
     10 N1          0.0234   -0.7964    1.1187 N.pl3     1 <0>        -0.4612
     11 C10         0.0298   -0.3055    2.4990 C.3       1 <0>         0.0919
     12 C11        -1.3886   -0.1571    2.9860 C.2       1 <0>         0.4960
     13 O1         -2.3137   -0.4341    2.2523 O.2       1 <0>        -0.5121
     14 N2         -1.6290    0.2834    4.2368 N.am      1 <0>        -0.6093
     15 C12        -0.5189    0.6288    5.1352 C.3       1 <0>         0.0998
     16 C13        -0.6853   -0.1473    6.4455 C.3       1 <0>        -0.1362
     17 C14        -2.0736    0.1314    7.0260 C.3       1 <0>        -0.1025
     18 C15        -3.1448   -0.3458    6.0426 C.3       1 <0>        -0.1241
     19 C16        -3.0064    0.4333    4.7259 C.3       1 <0>         0.1227
     20 C17        -4.5111   -0.1005    6.6291 C.2       1 <0>         0.5242
     21 O2         -4.6182    0.4062    7.7258 O.2       1 <0>        -0.5360
     22 N3         -5.6140   -0.4442    5.9349 N.am      1 <0>        -0.8540
     23 Br1        -0.0079   -0.1609   -2.8920 Br        1 <0>        -0.0197
     24 H1          1.0042    1.8801    0.0026 H         1 <0>         0.0872
     25 H2         -0.5455    1.8639   -0.8728 H         1 <0>         0.0935
     26 H3         -0.5286    1.8543    0.9071 H         1 <0>         0.0704
     27 H4          0.0382   -3.4296   -2.3954 H         1 <0>         0.1259
     28 H5          0.0721   -5.5041   -1.1040 H         1 <0>         0.1261
     29 H6          0.0803   -5.4421    1.3538 H         1 <0>         0.1275
     30 H7          0.0569   -3.2985    2.5476 H         1 <0>         0.1173
     31 H8          0.5598   -1.0150    3.1345 H         1 <0>         0.1218
     32 H9          0.5306    0.6619    2.5383 H         1 <0>         0.1224
     33 H10         0.4276    0.3575    4.6675 H         1 <0>         0.0865
     34 H11        -0.5341    1.6992    5.3401 H         1 <0>         0.0801
     35 H12        -0.5794   -1.2147    6.2521 H         1 <0>         0.0706
     36 H13         0.0770    0.1715    7.1564 H         1 <0>         0.0870
     37 H14        -2.1855   -0.4002    7.9710 H         1 <0>         0.0788
     38 H15        -2.1879    1.2020    7.1961 H         1 <0>         0.0758
     39 H16        -3.0157   -1.4114    5.8530 H         1 <0>         0.1036
     40 H17        -3.2203    1.4882    4.8980 H         1 <0>         0.0779
     41 H18        -3.7017    0.0330    3.9880 H         1 <0>         0.0985
     42 H19        -5.5284   -0.8494    5.0578 H         1 <0>         0.4032
     43 H20        -6.4935   -0.2862    6.3124 H         1 <0>         0.4045
@<TRIPOS>BOND
     1    1    2 1
     2    1   24 1
     3    1   25 1
     4    1   26 1
     5    2   10 1
     6    2    3 2
     7    3    4 1
     8    3   23 1
     9    4    9 ar
    10    4    5 ar
    11    5    6 ar
    12    5   27 1
    13    6    7 ar
    14    6   28 1
    15    7    8 ar
    16    7   29 1
    17    8    9 ar
    18    8   30 1
    19    9   10 1
    20   10   11 1
    21   11   12 1
    22   11   31 1
    23   11   32 1
    24   12   13 2
    25   12   14 am
    26   14   19 1
    27   14   15 1
    28   15   16 1
    29   15   33 1
    30   15   34 1
    31   16   17 1
    32   16   35 1
    33   16   36 1
    34   17   18 1
    35   17   37 1
    36   17   38 1
    37   18   19 1
    38   18   20 1
    39   18   39 1
    40   19   40 1
    41   19   41 1
    42   20   21 2
    43   20   22 am
    44   22   42 1
    45   22   43 1
@<TRIPOS>MOLECULE
ZINC21932406
   36    38     0     0     0
SMALL
USER_CHARGES
N-(2-oxo-3-propyl-1,3-benzoxazol-6-yl)-1H-imidazole-4-sulfonamide
@<TRIPOS>ATOM
      1 C1          9.2648   -0.1159   -5.5369 C.3       1 <0>        -0.1502
      2 C2          7.8096   -0.5874   -5.5707 C.3       1 <0>        -0.1462
      3 C3          6.8986    0.5327   -5.0645 C.3       1 <0>         0.1323
      4 N1          5.5053    0.0812   -5.0969 N.am      1 <0>        -0.5442
      5 C4          4.8216   -0.5653   -4.0641 C.ar      1 <0>         0.0156
      6 C5          5.1847   -0.9616   -2.7864 C.ar      1 <0>        -0.0761
      7 C6          4.2656   -1.5969   -1.9753 C.ar      1 <0>        -0.1919
      8 C7          2.9773   -1.8396   -2.4380 C.ar      1 <0>         0.2131
      9 C8          2.6115   -1.4494   -3.7178 C.ar      1 <0>        -0.1126
     10 C9          3.5303   -0.8068   -4.5323 C.ar      1 <0>         0.0547
     11 O1          3.4616   -0.3184   -5.7950 O.3       1 <0>        -0.2422
     12 C10         4.6482    0.2129   -6.1286 C.2       1 <0>         0.6309
     13 O2          4.9093    0.7331   -7.1963 O.2       1 <0>        -0.4993
     14 N2          2.0494   -2.4841   -1.6129 N.2       1 <0>        -1.0064
     15 S1          1.8974   -2.0323   -0.0270 S.o2      1 <0>         2.5532
     16 O3          3.2118   -1.9921    0.5116 O.2       1 <0>        -1.0129
     17 O4          0.8707   -2.8420    0.5293 O.2       1 <0>        -0.9565
     18 C11         1.2963   -0.3761   -0.0123 C.2       1 <0>        -0.5224
     19 C12         0.0021   -0.0041    0.0020 C.2       1 <0>         0.1184
     20 N3         -0.0165    1.3646    0.0095 N.pl3     1 <0>        -0.5390
     21 H1          3.1447    0.6572   -0.0243 H         1 <0>         0.5078
     22 C13         1.2679    1.7816   -0.0005 C.cat     1 <0>         0.3352
     23 N4          2.0475    0.7351   -0.0135 N.pl3     1 <0>        -0.4391
     24 H2          9.9197   -0.9213   -5.9009 H         1 <0>         0.0628
     25 H3          9.5421    0.1440   -4.5046 H         1 <0>         0.0580
     26 H4          9.3787    0.7686   -6.1809 H         1 <0>         0.0588
     27 H5          7.5323   -0.8473   -6.6030 H         1 <0>         0.0706
     28 H6          7.6957   -1.4719   -4.9267 H         1 <0>         0.0715
     29 H7          7.1759    0.7926   -4.0322 H         1 <0>         0.0915
     30 H8          7.0125    1.4172   -5.7085 H         1 <0>         0.0944
     31 H9          6.1851   -0.7733   -2.4258 H         1 <0>         0.1263
     32 H10         4.5479   -1.9055   -0.9795 H         1 <0>         0.1624
     33 H11         1.6117   -1.6427   -4.0774 H         1 <0>         0.1363
     34 H12        -0.7177   -0.6983    0.0057 H         1 <0>         0.2099
     35 H13         1.4761    2.7597    0.0027 H         1 <0>         0.2327
     36 H14        -0.9765    1.9015    0.0215 H         1 <0>         0.5026
@<TRIPOS>BOND
     1    1    2 1
     2    1   24 1
     3    1   25 1
     4    1   26 1
     5    2    3 1
     6    2   27 1
     7    2   28 1
     8    3    4 1
     9    3   29 1
    10    3   30 1
    11    4   12 am
    12    4    5 1
    13    5   10 ar
    14    5    6 ar
    15    6    7 ar
    16    6   31 1
    17    7    8 ar
    18    7   32 1
    19    8    9 ar
    20    8   14 1
    21    9   10 ar
    22    9   33 1
    23   10   11 1
    24   11   12 1
    25   12   13 2
    26   14   15 1
    27   15   16 2
    28   15   17 2
    29   15   18 1
    30   18   23 1
    31   18   19 2
    32   19   20 1
    33   19   34 1
    34   20   22 2
    35   20   36 1
    36   21   23 1
    37   22   35 1
    38   22   23 1
@<TRIPOS>MOLECULE
ZINC47345379
   42    44     0     0     0
SMALL
USER_CHARGES

@<TRIPOS>ATOM
      1 C1         -0.0187    1.5258    0.0104 C.3       1 <0>        -0.1506
      2 C2          0.0021   -0.0041    0.0020 C.3       1 <0>        -0.0271
      3 C3          0.7309   -0.5033    1.2229 C.2       1 <0>         0.0335
      4 N1          0.2682   -0.8034    2.4197 N.2       1 <0>        -0.2320
      5 N2          1.0720   -1.2106    3.3055 N.2       1 <0>        -0.2983
      6 C4          2.3619   -1.3441    3.0673 C.2       1 <0>         0.2535
      7 S1          2.4663   -0.8632    1.4548 S.3       1 <0>         0.0701
      8 N3          3.3717   -1.7741    3.9215 N.am      1 <0>        -0.6223
      9 C5          3.0783   -2.1240    5.1895 C.2       1 <0>         0.6979
     10 O1          1.9307   -2.0636    5.5867 O.2       1 <0>        -0.5141
     11 N4          4.0568   -2.5407    6.0173 N.am      1 <0>        -0.7294
     12 C6          3.7378   -2.9209    7.3956 C.3       1 <0>         0.1508
     13 H1          2.7577   -3.3969    7.4242 H         1 <0>         0.0963
     14 C7          4.7955   -3.8982    7.9137 C.3       1 <0>        -0.1281
     15 C8          4.4453   -4.3215    9.3421 C.3       1 <0>        -0.1314
     16 C9          4.4414   -3.0874   10.2497 C.3       1 <0>         0.1230
     17 N5          3.5340   -2.0830    9.6783 N.pl3     1 <0>        -0.5817
     18 C10         3.7252   -1.6708    8.2810 C.3       1 <0>         0.1161
     19 C11         2.5176   -1.5354   10.4417 C.ar      1 <0>         0.5657
     20 N6          1.7121   -0.6358    9.8965 N.ar      1 <0>        -0.5658
     21 C12         0.7308   -0.0934   10.5983 C.ar      1 <0>         0.1946
     22 C13         0.5512   -0.4770   11.9180 C.ar      1 <0>        -0.2931
     23 C14         1.4117   -1.4205   12.4568 C.ar      1 <0>         0.1915
     24 N7          2.3699   -1.9274   11.6987 N.ar      1 <0>        -0.5711
     25 H2          1.0039    1.9031    0.0027 H         1 <0>         0.0591
     26 H3         -0.5459    1.8868   -0.8726 H         1 <0>         0.0742
     27 H4         -0.5289    1.8773    0.9072 H         1 <0>         0.0644
     28 H5         -1.0205   -0.3814    0.0098 H         1 <0>         0.1067
     29 H6          0.5123   -0.3556   -0.8948 H         1 <0>         0.0952
     30 H7          4.2873   -1.8223    3.6046 H         1 <0>         0.4240
     31 H8          4.9724   -2.5888    5.7004 H         1 <0>         0.4004
     32 H9          4.8230   -4.7779    7.2707 H         1 <0>         0.0759
     33 H10         5.7718   -3.4135    7.9077 H         1 <0>         0.0735
     34 H11         3.4583   -4.7841    9.3528 H         1 <0>         0.0712
     35 H12         5.1861   -5.0355    9.7020 H         1 <0>         0.0864
     36 H13         4.0967   -3.3670   11.2452 H         1 <0>         0.1029
     37 H14         5.4490   -2.6763   10.3117 H         1 <0>         0.0673
     38 H15         4.6742   -1.1437    8.1826 H         1 <0>         0.0660
     39 H16         2.9081   -1.0163    7.9775 H         1 <0>         0.1068
     40 H17         0.0776    0.6397   10.1485 H         1 <0>         0.1667
     41 H18        -0.2419   -0.0497   12.5137 H         1 <0>         0.1442
     42 H19         1.2991   -1.7406   13.4821 H         1 <0>         0.1672
@<TRIPOS>BOND
     1    1    2 1
     2    1   25 1
     3    1   26 1
     4    1   27 1
     5    2    3 1
     6    2   28 1
     7    2   29 1
     8    3    7 1
     9    3    4 2
    10    4    5 1
    11    5    6 2
    12    6    7 1
    13    6    8 1
    14    8    9 am
    15    8   30 1
    16    9   10 2
    17    9   11 am
    18   11   12 1
    19   11   31 1
    20   12   13 1
    21   12   18 1
    22   12   14 1
    23   14   15 1
    24   14   32 1
    25   14   33 1
    26   15   16 1
    27   15   34 1
    28   15   35 1
    29   16   17 1
    30   16   36 1
    31   16   37 1
    32   17   18 1
    33   17   19 1
    34   18   38 1
    35   18   39 1
    36   19   24 ar
    37   19   20 ar
    38   20   21 ar
    39   21   22 ar
    40   21   40 1
    41   22   23 ar
    42   22   41 1
    43   23   24 ar
    44   23   42 1
@<TRIPOS>MOLECULE
ZINC58824920
   36    37     0     0     0
SMALL
USER_CHARGES

@<TRIPOS>ATOM
      1 C1         -1.2647    1.1832    0.1814 C.3       1 <0>        -0.1244
      2 C2         -0.5841   -0.1578    0.0844 C.ar      1 <0>        -0.0604
      3 C3         -0.5690   -0.8403   -1.1165 C.ar      1 <0>        -0.0997
      4 C4          0.0557   -2.0704   -1.2064 C.ar      1 <0>        -0.0657
      5 C5          0.6672   -2.6216   -0.0952 C.ar      1 <0>        -0.0362
      6 C6          0.6553   -1.9446    1.1083 C.ar      1 <0>        -0.0559
      7 C7          0.0336   -0.7060    1.2005 C.ar      1 <0>         0.1627
      8 N1          0.0251   -0.0145    2.4171 N.am      1 <0>        -0.6794
      9 C8         -0.0564   -0.6942    3.5781 C.2       1 <0>         0.7041
     10 O1         -0.0401   -1.9100    3.5732 O.2       1 <0>        -0.5601
     11 N2         -0.1560   -0.0263    4.7445 N.am      1 <0>        -0.7239
     12 C9         -0.2446   -0.7652    6.0064 C.3       1 <0>         0.1591
     13 H1          0.3523   -1.6750    5.9428 H         1 <0>         0.1195
     14 C10        -1.7113   -1.1253    6.2955 C.3       1 <0>        -0.1421
     15 C11        -1.8566   -1.6134    7.7571 C.3       1 <0>        -0.5734
     16 S1         -0.4879   -0.7337    8.6146 S.o2      1 <0>         2.3803
     17 O2          0.4308   -1.6915    9.1224 O.2       1 <0>        -0.9251
     18 O3         -1.0408    0.2382    9.4915 O.2       1 <0>        -0.9296
     19 C12         0.2745    0.1232    7.1729 C.3       1 <0>        -0.5980
     20 N3          1.3349   -3.9388   -0.1958 N.pl3     1 <0>         0.0331
     21 O4          1.3454   -4.5323   -1.2491 O.2       1 <0>        -0.1566
     22 O5          1.8697   -4.4212    0.7752 O.3       1 <0>        -0.1514
     23 H2         -0.5495    1.9715   -0.0534 H         1 <0>         0.0850
     24 H3         -2.0934    1.2220   -0.5257 H         1 <0>         0.0837
     25 H4         -1.6436    1.3260    1.1934 H         1 <0>         0.0718
     26 H5         -1.0460   -0.4127   -1.9860 H         1 <0>         0.1532
     27 H6          0.0658   -2.6022   -2.1464 H         1 <0>         0.1562
     28 H7          1.1324   -2.3758    1.9759 H         1 <0>         0.1722
     29 H8          0.0779    0.9540    2.4249 H         1 <0>         0.4143
     30 H9         -0.1690    0.9436    4.7484 H         1 <0>         0.4054
     31 H10        -2.3366   -0.2455    6.1439 H         1 <0>         0.0903
     32 H11        -2.0303   -1.9161    5.6165 H         1 <0>         0.1039
     33 H12        -2.8224   -1.3198    8.1684 H         1 <0>         0.1462
     34 H13        -1.7209   -2.6931    7.8193 H         1 <0>         0.1447
     35 H14         1.3627    0.1005    7.2315 H         1 <0>         0.1503
     36 H15        -0.0921    1.1457    7.0829 H         1 <0>         0.1462
@<TRIPOS>BOND
     1    1    2 1
     2    1   23 1
     3    1   24 1
     4    1   25 1
     5    2    7 ar
     6    2    3 ar
     7    3    4 ar
     8    3   26 1
     9    4    5 ar
    10    4   27 1
    11    5    6 ar
    12    5   20 1
    13    6    7 ar
    14    6   28 1
    15    7    8 1
    16    8    9 am
    17    8   29 1
    18    9   10 2
    19    9   11 am
    20   11   12 1
    21   11   30 1
    22   12   13 1
    23   12   19 1
    24   12   14 1
    25   14   15 1
    26   14   31 1
    27   14   32 1
    28   15   16 1
    29   15   33 1
    30   15   34 1
    31   16   17 2
    32   16   18 2
    33   16   19 1
    34   19   35 1
    35   19   36 1
    36   20   21 2
    37   20   22 1
@<TRIPOS>MOLECULE
ZINC64328081
   34    36     0     0     0
SMALL
USER_CHARGES

@<TRIPOS>ATOM
      1 C1          0.9273   -0.8371   -2.5486 C.3       1 <0>         0.0718
      2 N1          0.4345   -1.0555   -1.1864 N.pl3     1 <0>        -0.5236
      3 C2         -0.8837   -1.6027   -0.8243 C.3       1 <0>         0.0662
      4 C3         -0.8533   -1.6086    0.7171 C.3       1 <0>         0.0533
      5 N2          0.4717   -1.0668    1.0491 N.pl3     1 <0>        -0.5815
      6 C4          1.1231   -0.7912   -0.0336 C.cat     1 <0>         0.4582
      7 S1          2.7552   -0.1274   -0.0251 S.3       1 <0>         0.1575
      8 C5          3.7918   -1.5462    0.1056 C.ar      1 <0>         0.0613
      9 C6          5.1702   -1.3806    0.2370 C.ar      1 <0>        -0.0525
     10 C7          5.9729   -2.4857    0.3383 C.ar      1 <0>        -0.0125
     11 C8          5.3723   -3.7545    0.3057 C.ar      1 <0>        -0.0393
     12 C9          3.9851   -3.8445    0.1719 C.ar      1 <0>         0.1554
     13 N3          3.2498   -2.7557    0.0829 N.ar      1 <0>        -0.4837
     14 C10         6.1938   -4.9734    0.4108 C.2       1 <0>         0.4403
     15 O1          7.5353   -4.8750    0.5395 O.3       1 <0>        -0.6405
     16 N4          5.6219   -6.1558    0.3792 N.2       1 <0>        -0.6456
     17 C11         6.3793   -7.2796    0.4760 C.2       1 <0>         0.5107
     18 N5          5.9227   -8.5617    0.4522 N.pl3     1 <0>        -0.5137
     19 N6          7.0548   -9.3824    0.5813 N.2       1 <0>        -0.3627
     20 C12         8.0933   -8.5943    0.6727 C.2       1 <0>         0.1952
     21 N7          7.6940   -7.3266    0.6047 N.2       1 <0>        -0.5542
     22 Cl1         5.8622    0.2112    0.2713 Cl        1 <0>        -0.0296
     23 H1          1.9365   -0.4273   -2.5086 H         1 <0>         0.1100
     24 H2          0.9413   -1.7852   -3.0863 H         1 <0>         0.1024
     25 H3          0.2708   -0.1365   -3.0646 H         1 <0>         0.1024
     26 H4         -1.6818   -0.9572   -1.1907 H         1 <0>         0.1224
     27 H5         -0.9989   -2.6155   -1.2105 H         1 <0>         0.1244
     28 H6         -1.6392   -0.9679    1.1171 H         1 <0>         0.1290
     29 H7         -0.9568   -2.6248    1.0974 H         1 <0>         0.1306
     30 H8          7.0432   -2.3836    0.4406 H         1 <0>         0.1723
     31 H9          3.5112   -4.8146    0.1452 H         1 <0>         0.1910
     32 H10         9.1169   -8.9210    0.7821 H         1 <0>         0.1976
     33 H11         0.8098   -0.9380    1.9491 H         1 <0>         0.4620
     34 H12         5.0008   -8.8503    0.3644 H         1 <0>         0.4255
@<TRIPOS>BOND
     1    1    2 1
     2    1   23 1
     3    1   24 1
     4    1   25 1
     5    2    6 1
     6    2    3 1
     7    3    4 1
     8    3   26 1
     9    3   27 1
    10    4    5 1
    11    4   28 1
    12    4   29 1
    13    5    6 2
    14    5   33 1
    15    6    7 1
    16    7    8 1
    17    8   13 ar
    18    8    9 ar
    19    9   10 ar
    20    9   22 1
    21   10   11 ar
    22   10   30 1
    23   11   12 ar
    24   11   14 1
    25   12   13 ar
    26   12   31 1
    27   14   15 1
    28   14   16 2
    29   16   17 1
    30   17   21 2
    31   17   18 1
    32   18   19 1
    33   18   34 1
    34   19   20 2
    35   20   21 1
    36   20   32 1
@<TRIPOS>MOLECULE
ZINC66364058
   52    53     0     0     0
SMALL
USER_CHARGES

@<TRIPOS>ATOM
      1 C1         -0.0173    1.4248    0.0099 C.3       1 <0>         0.0532
      2 O1          0.0021   -0.0041    0.0020 O.3       1 <0>        -0.3659
      3 C2          0.6200   -0.6127    1.0318 C.2       1 <0>         0.6484
      4 O2          1.1289    0.0513    1.9131 O.2       1 <0>        -0.5684
      5 N1          0.6741   -1.9583    1.0852 N.am      1 <0>        -0.5957
      6 C3          0.0688   -2.7745    0.0240 C.3       1 <0>         0.1161
      7 C4         -0.8922   -3.7814    0.6639 C.3       1 <0>        -0.1431
      8 C5         -0.1449   -4.5881    1.7283 C.3       1 <0>         0.1640
      9 C6          0.3648   -3.6453    2.8208 C.3       1 <0>        -0.1463
     10 C7          1.3449   -2.6368    2.2025 C.3       1 <0>         0.1297
     11 N2         -1.0524   -5.5747    2.3194 N.am      1 <0>        -0.7424
     12 C8         -0.5567   -6.6966    2.8779 C.2       1 <0>         0.7065
     13 O3          0.6437   -6.8899    2.8913 O.2       1 <0>        -0.5859
     14 N3         -1.3915   -7.6043    3.4217 N.am      1 <0>        -0.7442
     15 C9         -0.8527   -8.8238    4.0288 C.3       1 <0>         0.1255
     16 C10        -2.0031   -9.6769    4.5670 C.3       1 <0>         0.1017
     17 N4         -1.4643  -10.8964    5.1742 N.am      1 <0>        -0.6060
     18 C11        -1.2735  -12.1008    4.3498 C.3       1 <0>         0.1094
     19 C12         0.2257  -12.3092    4.1270 C.3       1 <0>        -0.1440
     20 C13         0.8368  -13.1030    5.2673 C.3       1 <0>        -0.1234
     21 C14         0.8419  -12.3653    6.5939 C.3       1 <0>        -0.1150
     22 C15        -0.5859  -12.1612    7.1062 C.3       1 <0>        -0.1376
     23 C16        -1.1448  -10.9064    6.4690 C.2       1 <0>         0.5168
     24 O4         -1.3065   -9.9087    7.1392 O.2       1 <0>        -0.5426
     25 H1          1.0053    1.8021    0.0021 H         1 <0>         0.0614
     26 H2         -0.5445    1.7859   -0.8732 H         1 <0>         0.1042
     27 H3         -0.5275    1.7763    0.9067 H         1 <0>         0.0609
     28 H4         -0.4806   -2.1311   -0.6634 H         1 <0>         0.0995
     29 H5          0.8501   -3.3081   -0.5172 H         1 <0>         0.0772
     30 H6         -1.7221   -3.2482    1.1276 H         1 <0>         0.0751
     31 H7         -1.2750   -4.4561   -0.1018 H         1 <0>         0.0868
     32 H8          0.6996   -5.1014    1.2685 H         1 <0>         0.0936
     33 H9         -0.4770   -3.1134    3.2642 H         1 <0>         0.0705
     34 H10         0.8766   -4.2233    3.5904 H         1 <0>         0.0868
     35 H11         2.2281   -3.1594    1.8354 H         1 <0>         0.0786
     36 H12         1.6378   -1.9026    2.9530 H         1 <0>         0.1009
     37 H13        -2.0100   -5.4205    2.3087 H         1 <0>         0.3964
     38 H14        -2.3491   -7.4501    3.4110 H         1 <0>         0.3966
     39 H15        -0.3007   -9.3900    3.2785 H         1 <0>         0.0682
     40 H16        -0.1841   -8.5574    4.8474 H         1 <0>         0.0700
     41 H17        -2.5551   -9.1107    5.3173 H         1 <0>         0.0914
     42 H18        -2.6717   -9.9433    3.7484 H         1 <0>         0.0843
     43 H19        -1.6905  -12.9663    4.8647 H         1 <0>         0.0811
     44 H20        -1.7712  -11.9690    3.3891 H         1 <0>         0.0877
     45 H21         0.3775  -12.8494    3.1925 H         1 <0>         0.0790
     46 H22         0.7168  -11.3383    4.0627 H         1 <0>         0.0720
     47 H23         0.2750  -14.0295    5.3865 H         1 <0>         0.0651
     48 H24         1.8645  -13.3541    5.0048 H         1 <0>         0.0677
     49 H25         1.4059  -12.9449    7.3246 H         1 <0>         0.0779
     50 H26         1.3183  -11.3938    6.4624 H         1 <0>         0.0667
     51 H27        -1.1997  -13.0192    6.8319 H         1 <0>         0.0907
     52 H28        -0.5733  -12.0479    8.1903 H         1 <0>         0.0986
@<TRIPOS>BOND
     1    1    2 1
     2    1   25 1
     3    1   26 1
     4    1   27 1
     5    2    3 1
     6    3    4 2
     7    3    5 am
     8    5   10 1
     9    5    6 1
    10    6    7 1
    11    6   28 1
    12    6   29 1
    13    7    8 1
    14    7   30 1
    15    7   31 1
    16    8    9 1
    17    8   11 1
    18    8   32 1
    19    9   10 1
    20    9   33 1
    21    9   34 1
    22   10   35 1
    23   10   36 1
    24   11   12 am
    25   11   37 1
    26   12   13 2
    27   12   14 am
    28   14   15 1
    29   14   38 1
    30   15   16 1
    31   15   39 1
    32   15   40 1
    33   16   17 1
    34   16   41 1
    35   16   42 1
    36   17   23 am
    37   17   18 1
    38   18   19 1
    39   18   43 1
    40   18   44 1
    41   19   20 1
    42   19   45 1
    43   19   46 1
    44   20   21 1
    45   20   47 1
    46   20   48 1
    47   21   22 1
    48   21   49 1
    49   21   50 1
    50   22   23 1
    51   22   51 1
    52   22   52 1
    53   23   24 2
@<TRIPOS>MOLECULE
ZINC20256386
   33    33     0     0     0
SMALL
USER_CHARGES
(2R,4S)-1-(tert-butylcarbamoyl)-4-hydroxy-pyrrolidine-2-carboxylic acid
@<TRIPOS>ATOM
      1 C1         -0.0127    1.0858    0.0080 C.3       1 <0>        -0.1643
      2 C2         -0.7288    1.5792    1.2668 C.3       1 <0>         0.1927
      3 C3         -0.7496    3.1091    1.2752 C.3       1 <0>        -0.1657
      4 C4         -2.1642    1.0497    1.2777 C.3       1 <0>        -0.1510
      5 N1         -0.0203    1.0939    2.4537 N.am      1 <0>        -0.7546
      6 C5          1.2675    1.4359    2.6565 C.2       1 <0>         0.7337
      7 O1          1.8412    2.1472    1.8545 O.2       1 <0>        -0.5759
      8 N2          1.9193    0.9894    3.7484 N.am      1 <0>        -0.6088
      9 C6          1.3478    0.1243    4.7964 C.3       1 <0>         0.1149
     10 C7          2.5682   -0.5866    5.4328 C.3       1 <0>         0.1002
     11 H1          2.3949   -1.0699    6.4056 H         1 <0>         0.0717
     12 C8          3.6341    0.5405    5.4063 C.3       1 <0>        -0.1283
     13 C9          3.3200    1.2793    4.0884 C.3       1 <0>         0.1193
     14 H2          3.9623    0.9554    3.2562 H         1 <0>         0.0740
     15 C10         3.5047    2.7628    4.2790 C.2       1 <0>         0.4644
     16 O2          2.5459    3.4700    4.4803 O.co2     1 <0>        -0.6256
     17 O3          4.7343    3.2984    4.2253 O.co2     1 <0>        -0.7727
     18 O4          2.9819   -1.7017    4.6407 O.3       1 <0>        -0.6009
     19 H3          0.0022   -0.0141    0.0020 H         1 <0>         0.0482
     20 H4          1.0193    1.4666    0.0002 H         1 <0>         0.0822
     21 H5         -0.5448    1.4502   -0.8831 H         1 <0>         0.0551
     22 H6         -1.2645    3.4638    2.1802 H         1 <0>         0.0509
     23 H7         -1.2817    3.4734    0.3840 H         1 <0>         0.0533
     24 H8          0.2824    3.4899    1.2674 H         1 <0>         0.0853
     25 H9         -2.6790    1.4045    2.1828 H         1 <0>         0.0595
     26 H10        -2.1493   -0.0502    1.2716 H         1 <0>         0.0580
     27 H11        -2.6962    1.4141    0.3866 H         1 <0>         0.0689
     28 H12        -0.5394    0.4504    3.1793 H         1 <0>         0.4018
     29 H13         0.8090    0.7430    5.5291 H         1 <0>         0.0776
     30 H14         0.6507   -0.5936    4.3395 H         1 <0>         0.0706
     31 H15         3.5115    1.1819    6.2915 H         1 <0>         0.0804
     32 H16         4.6396    0.0945    5.4131 H         1 <0>         0.0817
     33 H17         3.8391   -2.3137    4.9578 H         1 <0>         0.4032
@<TRIPOS>BOND
     1    1    2 1
     2    1   19 1
     3    1   20 1
     4    1   21 1
     5    2    3 1
     6    2    4 1
     7    2    5 1
     8    3   22 1
     9    3   23 1
    10    3   24 1
    11    4   25 1
    12    4   26 1
    13    4   27 1
    14    5    6 am
    15    5   28 1
    16    6    7 2
    17    6    8 am
    18    8   13 1
    19    8    9 1
    20    9   10 1
    21    9   29 1
    22    9   30 1
    23   10   11 1
    24   10   12 1
    25   10   18 1
    26   12   13 1
    27   12   31 1
    28   12   32 1
    29   13   14 1
    30   13   15 1
    31   15   16 2
    32   15   17 1
    33   18   33 1
@<TRIPOS>MOLECULE
ZINC39085185
   18    18     0     0     0
SMALL
USER_CHARGES

@<TRIPOS>ATOM
      1 C1          0.5686   -0.4645    1.6739 C.3       1 <0>        -0.1759
      2 S1          0.0015   -0.0035    0.0136 S.3       1 <0>         0.0456
      3 C2         -1.5656   -0.5482   -0.0412 C.2       1 <0>        -0.1955
      4 C3         -2.7251    0.2271   -0.1425 C.2       1 <0>        -0.0386
      5 C4         -3.8482   -0.7403   -0.1529 C.2       1 <0>         0.5430
      6 O1         -5.0281   -0.4585   -0.2305 O.2       1 <0>        -0.4144
      7 N1         -3.3357   -1.9953   -0.0615 N.am      1 <0>        -0.6251
      8 C5         -2.0286   -1.9696    0.0011 C.cat     1 <0>         0.4211
      9 N2         -1.2208   -3.0608    0.0930 N.pl3     1 <0>        -0.3601
     10 O2         -1.7854   -4.3590    0.1244 O.3       1 <0>        -0.5645
     11 C6         -2.8083    1.6335   -0.2184 C.2       1 <0>         0.5165
     12 O3         -1.7856    2.3047   -0.2952 O.co2     1 <0>        -0.6316
     13 O4         -3.9034    2.1841   -0.2076 O.co2     1 <0>        -0.6499
     14 H1          1.6265   -0.2232    1.7765 H         1 <0>         0.1138
     15 H2         -0.0040    0.0871    2.4196 H         1 <0>         0.0878
     16 H3          0.4239   -1.5345    1.8232 H         1 <0>         0.0681
     17 H4         -0.2582   -2.9494    0.1370 H         1 <0>         0.4252
     18 H5         -3.8691   -2.8053   -0.0485 H         1 <0>         0.4342
@<TRIPOS>BOND
     1    1    2 1
     2    1   14 1
     3    1   15 1
     4    1   16 1
     5    2    3 1
     6    3    8 1
     7    3    4 2
     8    4    5 1
     9    4   11 1
    10    5    6 2
    11    5    7 am
    12    7    8 2
    13    7   18 1
    14    8    9 1
    15    9   10 1
    16    9   17 1
    17   11   12 2
    18   11   13 1
@<TRIPOS>MOLECULE
ZINC40605278
   36    36     0     0     0
SMALL
USER_CHARGES

@<TRIPOS>ATOM
      1 C1         -0.0187    1.5258    0.0104 C.3       1 <0>        -0.1409
      2 C2          0.0021   -0.0041    0.0020 C.3       1 <0>        -0.0822
      3 C3          0.7421   -0.5109    1.2415 C.3       1 <0>        -0.1392
      4 C4         -1.4333   -0.5336    0.0129 C.3       1 <0>        -0.1376
      5 C5          0.7182   -0.4975   -1.2568 C.3       1 <0>         0.1521
      6 N1          2.0926    0.0096   -1.2672 N.am      1 <0>        -0.7508
      7 C6          2.9171   -0.2992   -2.2876 C.2       1 <0>         0.7294
      8 O1          2.5203   -0.9987   -3.1995 O.2       1 <0>        -0.5756
      9 N2          4.1816    0.1673   -2.2972 N.am      1 <0>        -0.6020
     10 C7          4.7922    1.0158   -1.2577 C.3       1 <0>         0.0744
     11 C8          6.3151    0.7608   -1.3817 C.3       1 <0>         0.0878
     12 H1          6.8854    1.6083   -1.0015 H         1 <0>         0.0749
     13 C9          6.4835    0.6214   -2.9178 C.3       1 <0>        -0.0983
     14 C10         5.1823   -0.0910   -3.3428 C.3       1 <0>         0.0887
     15 H2          5.3567   -1.1632   -3.4323 H         1 <0>         0.0674
     16 C11         4.7033    0.4648   -4.6591 C.2       1 <0>         0.4946
     17 O2          3.7031    1.1609   -4.6992 O.co2     1 <0>        -0.6777
     18 O3          5.3159    0.2184   -5.6840 O.co2     1 <0>        -0.7029
     19 O4          6.6885   -0.4457   -0.7132 O.3       1 <0>        -0.5529
     20 H3          1.0039    1.9031    0.0027 H         1 <0>         0.0543
     21 H4         -0.5459    1.8868   -0.8726 H         1 <0>         0.0591
     22 H5         -0.5289    1.8773    0.9072 H         1 <0>         0.0543
     23 H6          0.2319   -0.1594    2.1383 H         1 <0>         0.0547
     24 H7          0.7568   -1.6008    1.2356 H         1 <0>         0.0568
     25 H8          1.7647   -0.1336    1.2338 H         1 <0>         0.0530
     26 H9         -1.9605   -0.1726   -0.8702 H         1 <0>         0.0587
     27 H10        -1.4185   -1.6235    0.0069 H         1 <0>         0.0572
     28 H11        -1.9435   -0.1821    0.9097 H         1 <0>         0.0572
     29 H12         0.7330   -1.5874   -1.2628 H         1 <0>         0.0603
     30 H13         0.1910   -0.1364   -2.1398 H         1 <0>         0.0636
     31 H14         2.4092    0.5676   -0.5397 H         1 <0>         0.3862
     32 H15         4.5669    2.0658   -1.4444 H         1 <0>         0.0695
     33 H16         4.4373    0.7206   -0.2702 H         1 <0>         0.0631
     34 H17         6.5619    1.6017   -3.3877 H         1 <0>         0.0864
     35 H18         7.3521    0.0076   -3.1564 H         1 <0>         0.0854
     36 H19         6.5094   -0.4405    0.2371 H         1 <0>         0.3709
@<TRIPOS>BOND
     1    1    2 1
     2    1   20 1
     3    1   21 1
     4    1   22 1
     5    2    3 1
     6    2    4 1
     7    2    5 1
     8    3   23 1
     9    3   24 1
    10    3   25 1
    11    4   26 1
    12    4   27 1
    13    4   28 1
    14    5    6 1
    15    5   29 1
    16    5   30 1
    17    6    7 am
    18    6   31 1
    19    7    8 2
    20    7    9 am
    21    9   14 1
    22    9   10 1
    23   10   11 1
    24   10   32 1
    25   10   33 1
    26   11   12 1
    27   11   13 1
    28   11   19 1
    29   13   14 1
    30   13   34 1
    31   13   35 1
    32   14   15 1
    33   14   16 1
    34   16   17 2
    35   16   18 1
    36   19   36 1
@<TRIPOS>MOLECULE
ZINC45930301
   22    22     0     0     0
SMALL
USER_CHARGES

@<TRIPOS>ATOM
      1 C1         -0.0178    1.4608    0.0101 C.3       1 <0>         0.0934
      2 N1          0.0021   -0.0041    0.0020 N.pl3     1 <0>        -0.3189
      3 C2          0.0074   -0.7753   -1.1155 C.2       1 <0>         0.1561
      4 C3          0.0277   -2.0713   -0.7052 C.2       1 <0>        -0.1697
      5 C4          0.0340   -2.0191    0.7098 C.2       1 <0>         0.0066
      6 N2          0.0226   -0.7451    1.0511 N.2       1 <0>        -0.2523
      7 C5          0.0541   -3.1714    1.6284 C.2       1 <0>         0.5595
      8 O1          0.0672   -4.3098    1.1812 O.co2     1 <0>        -0.6717
      9 O2          0.0576   -2.9894    2.8379 O.co2     1 <0>        -0.6747
     10 C6          0.0404   -3.3032   -1.5731 C.3       1 <0>        -0.0319
     11 C7          1.4870   -3.7000   -1.8744 C.3       1 <0>         0.0915
     12 O3          1.4990   -4.8681   -2.6974 O.3       1 <0>        -0.5741
     13 O4         -0.0052   -0.3354   -2.3999 O.3       1 <0>        -0.4608
     14 H1          1.0048    1.8381    0.0023 H         1 <0>         0.0723
     15 H2         -0.5450    1.8219   -0.8730 H         1 <0>         0.0859
     16 H3         -0.5280    1.8123    0.9069 H         1 <0>         0.0911
     17 H4         -0.4593   -4.1199   -1.0520 H         1 <0>         0.1022
     18 H5         -0.4814   -3.0950   -2.5071 H         1 <0>         0.0618
     19 H6          1.9867   -2.8833   -2.3955 H         1 <0>         0.0277
     20 H7          2.0088   -3.9082   -0.9404 H         1 <0>         0.0538
     21 H8          2.3856   -5.1773   -2.9286 H         1 <0>         0.3711
     22 H9          0.8745   -0.1958   -2.7765 H         1 <0>         0.3810
@<TRIPOS>BOND
     1    1    2 1
     2    1   14 1
     3    1   15 1
     4    1   16 1
     5    2    6 1
     6    2    3 1
     7    3    4 2
     8    3   13 1
     9    4    5 1
    10    4   10 1
    11    5    6 2
    12    5    7 1
    13    7    8 2
    14    7    9 1
    15   10   11 1
    16   10   17 1
    17   10   18 1
    18   11   12 1
    19   11   19 1
    20   11   20 1
    21   12   21 1
    22   13   22 1
@<TRIPOS>MOLECULE
ZINC61712953
   36    36     0     0     0
SMALL
USER_CHARGES

@<TRIPOS>ATOM
      1 C1         -0.0187    1.5258    0.0104 C.3       1 <0>        -0.1383
      2 C2          0.0021   -0.0041    0.0020 C.3       1 <0>        -0.0616
      3 C3          0.7421   -0.5109    1.2415 C.3       1 <0>        -0.1346
      4 C4         -1.4333   -0.5336    0.0129 C.3       1 <0>        -0.1349
      5 C5          0.7182   -0.4975   -1.2568 C.3       1 <0>         0.1012
      6 H1          0.1910   -0.1364   -2.1398 H         1 <0>         0.0785
      7 C6          2.1320    0.0241   -1.2675 C.2       1 <0>         0.4951
      8 O1          3.0655   -0.7414   -1.0971 O.co2     1 <0>        -0.6885
      9 O2          2.3423    1.2117   -1.4465 O.co2     1 <0>        -0.6943
     10 N1          0.7381   -1.9623   -1.2648 N.am      1 <0>        -0.7040
     11 C7          0.8378   -2.6285   -2.4322 C.2       1 <0>         0.7268
     12 O3          0.9113   -2.0138   -3.4786 O.2       1 <0>        -0.5917
     13 N2          0.8561   -3.9761   -2.4396 N.am      1 <0>        -0.6401
     14 C8          0.7686   -4.8408   -1.2538 C.3       1 <0>         0.1022
     15 C9          0.8007   -6.3021   -1.7488 C.3       1 <0>        -0.1199
     16 C10         0.3346   -6.1797   -3.2237 C.3       1 <0>         0.0891
     17 H2         -0.7527   -6.1389   -3.2877 H         1 <0>         0.0732
     18 C11         0.9608   -4.8274   -3.6387 C.3       1 <0>         0.0983
     19 O4          0.8517   -7.2514   -4.0149 O.3       1 <0>        -0.5571
     20 H3          1.0039    1.9031    0.0027 H         1 <0>         0.0887
     21 H4         -0.5459    1.8868   -0.8726 H         1 <0>         0.0481
     22 H5         -0.5289    1.8773    0.9072 H         1 <0>         0.0398
     23 H6          0.2319   -0.1594    2.1383 H         1 <0>         0.0475
     24 H7          0.7568   -1.6008    1.2356 H         1 <0>         0.0438
     25 H8          1.7647   -0.1336    1.2338 H         1 <0>         0.0656
     26 H9         -1.9605   -0.1726   -0.8702 H         1 <0>         0.0507
     27 H10        -1.4185   -1.6235    0.0069 H         1 <0>         0.0472
     28 H11        -1.9435   -0.1821    0.9097 H         1 <0>         0.0494
     29 H12         0.6794   -2.4528   -0.4300 H         1 <0>         0.3856
     30 H13         1.6168   -4.6538   -0.5952 H         1 <0>         0.0713
     31 H14        -0.1643   -4.6495   -0.7235 H         1 <0>         0.0642
     32 H15         1.8122   -6.7049   -1.6962 H         1 <0>         0.0863
     33 H16         0.1085   -6.9188   -1.1756 H         1 <0>         0.0850
     34 H17         0.4026   -4.3883   -4.4656 H         1 <0>         0.0768
     35 H18         2.0058   -4.9652   -3.9161 H         1 <0>         0.0696
     36 H19         0.5870   -7.2173   -4.9444 H         1 <0>         0.3813
@<TRIPOS>BOND
     1    1    2 1
     2    1   20 1
     3    1   21 1
     4    1   22 1
     5    2    3 1
     6    2    4 1
     7    2    5 1
     8    3   23 1
     9    3   24 1
    10    3   25 1
    11    4   26 1
    12    4   27 1
    13    4   28 1
    14    5    6 1
    15    5    7 1
    16    5   10 1
    17    7    8 2
    18    7    9 1
    19   10   11 am
    20   10   29 1
    21   11   12 2
    22   11   13 am
    23   13   18 1
    24   13   14 1
    25   14   15 1
    26   14   30 1
    27   14   31 1
    28   15   16 1
    29   15   32 1
    30   15   33 1
    31   16   17 1
    32   16   18 1
    33   16   19 1
    34   18   34 1
    35   18   35 1
    36   19   36 1
@<TRIPOS>MOLECULE
ZINC19788482
   29    29     0     0     0
SMALL
USER_CHARGES
3-(m-tolylamino)propane-1-sulfonic acid
@<TRIPOS>ATOM
      1 C1         -1.0664    1.8163    6.1073 C.3       1 <0>        -0.1156
      2 C2         -0.3631    1.3317    4.8658 C.ar      1 <0>        -0.0413
      3 C3          0.7729    0.5504    4.9758 C.ar      1 <0>        -0.1908
      4 C4          1.4213    0.1036    3.8393 C.ar      1 <0>        -0.0680
      5 C5          0.9331    0.4321    2.5896 C.ar      1 <0>        -0.2101
      6 C6         -0.2046    1.2206    2.4755 C.ar      1 <0>         0.2300
      7 C7         -0.8537    1.6678    3.6196 C.ar      1 <0>        -0.2042
      8 N1         -0.6984    1.5583    1.2133 N.pl3     1 <0>        -0.7562
      9 C8         -0.0127    1.0858    0.0080 C.3       1 <0>         0.1318
     10 C9         -0.7527    1.5927   -1.2315 C.3       1 <0>        -0.1162
     11 C10        -0.0366    1.0992   -2.4903 C.3       1 <0>        -0.6734
     12 S1         -0.9139    1.7001   -3.9599 S.o2      1 <0>         2.6412
     13 O1         -2.1870    1.0767   -4.0590 O.2       1 <0>        -1.0544
     14 O2         -0.7889    3.1120   -4.0614 O.2       1 <0>        -1.0544
     15 O3         -0.1213    1.1543   -5.1391 O.3       1 <0>        -1.0869
     16 H1         -0.5332    1.4506    6.9972 H         1 <0>         0.0629
     17 H2         -2.0985    1.4359    6.1161 H         1 <0>         0.0675
     18 H3         -1.0809    2.9162    6.1148 H         1 <0>         0.0675
     19 H4          1.1541    0.2884    5.9517 H         1 <0>         0.1131
     20 H5          2.3080   -0.5063    3.9288 H         1 <0>         0.1167
     21 H6          1.4375    0.0792    1.7023 H         1 <0>         0.1183
     22 H7         -1.7407    2.2779    3.5343 H         1 <0>         0.1173
     23 H8         -1.6022    2.1790    1.1243 H         1 <0>         0.4191
     24 H9          1.0193    1.4665    0.0002 H         1 <0>         0.0583
     25 H10         0.0022   -0.0141    0.0020 H         1 <0>         0.0583
     26 H11        -1.7847    1.2120   -1.2236 H         1 <0>         0.0765
     27 H12        -0.7676    2.6926   -1.2255 H         1 <0>         0.0765
     28 H13         0.9954    1.4799   -2.4981 H         1 <0>         0.1081
     29 H14        -0.0217   -0.0007   -2.4963 H         1 <0>         0.1081
@<TRIPOS>BOND
     1    1    2 1
     2    1   16 1
     3    1   17 1
     4    1   18 1
     5    2    7 ar
     6    2    3 ar
     7    3    4 ar
     8    3   19 1
     9    4    5 ar
    10    4   20 1
    11    5    6 ar
    12    5   21 1
    13    6    7 ar
    14    6    8 1
    15    7   22 1
    16    8    9 1
    17    8   23 1
    18    9   10 1
    19    9   24 1
    20    9   25 1
    21   10   11 1
    22   10   26 1
    23   10   27 1
    24   11   12 1
    25   11   28 1
    26   11   29 1
    27   12   13 2
    28   12   14 2
    29   12   15 1
@<TRIPOS>MOLECULE
ZINC37961716
   27    28     0     0     0
SMALL
USER_CHARGES

@<TRIPOS>ATOM
      1 C1         -0.0167    1.3781    0.0096 C.ar      1 <0>        -0.0547
      2 C2          1.1689    2.0870    0.0021 C.ar      1 <0>        -0.2203
      3 C3          2.3820    1.4105   -0.0131 C.ar      1 <0>         0.2775
      4 C4          2.3996    0.0217   -0.0208 C.ar      1 <0>        -0.1904
      5 C5          1.2096   -0.6830   -0.0132 C.ar      1 <0>         0.1314
      6 C6          0.0021   -0.0041    0.0020 C.ar      1 <0>        -0.2285
      7 F1          1.2247   -2.0338   -0.0211 F         1 <0>        -0.1474
      8 N1          3.5817    2.1255   -0.0212 N.pl3     1 <0>        -0.7102
      9 C7          4.8604    1.4106   -0.0373 C.3       1 <0>         0.0950
     10 C8          6.0138    2.4266    0.0052 C.3       1 <0>        -0.1139
     11 C9          6.0938    3.1269   -1.3813 C.3       1 <0>        -0.0597
     12 S1          5.7988    1.6933   -2.5005 S.3       1 <0>        -0.3304
     13 C10         4.9559    0.5574   -1.3251 C.3       1 <0>        -0.0518
     14 C11         4.9446    0.5092    1.1675 C.2       1 <0>         0.4948
     15 O1          4.0280    0.4781    1.9708 O.co2     1 <0>        -0.6602
     16 O2          5.9294   -0.1889    1.3388 O.co2     1 <0>        -0.6839
     17 H1         -0.9596    1.9044    0.0260 H         1 <0>         0.1214
     18 H2          1.1526    3.1669    0.0077 H         1 <0>         0.1166
     19 H3          3.3412   -0.5071   -0.0330 H         1 <0>         0.1341
     20 H4         -0.9264   -0.5557    0.0083 H         1 <0>         0.1206
     21 H5          3.5684    3.0954   -0.0162 H         1 <0>         0.3918
     22 H6          5.8232    3.1677    0.7815 H         1 <0>         0.0804
     23 H7          6.9515    1.9106    0.2117 H         1 <0>         0.0986
     24 H8          5.3118    3.8785   -1.4890 H         1 <0>         0.0844
     25 H9          7.0799    3.5605   -1.5477 H         1 <0>         0.1005
     26 H10         5.5563   -0.3360   -1.1532 H         1 <0>         0.1054
     27 H11         3.9627    0.2930   -1.6881 H         1 <0>         0.0988
@<TRIPOS>BOND
     1    1    6 ar
     2    1    2 ar
     3    1   17 1
     4    2    3 ar
     5    2   18 1
     6    3    4 ar
     7    3    8 1
     8    4    5 ar
     9    4   19 1
    10    5    6 ar
    11    5    7 1
    12    6   20 1
    13    8    9 1
    14    8   21 1
    15    9   13 1
    16    9   10 1
    17    9   14 1
    18   10   11 1
    19   10   22 1
    20   10   23 1
    21   11   12 1
    22   11   24 1
    23   11   25 1
    24   12   13 1
    25   13   26 1
    26   13   27 1
    27   14   15 2
    28   14   16 1
@<TRIPOS>MOLECULE
ZINC40929606
   34    34     0     0     0
SMALL
USER_CHARGES

@<TRIPOS>ATOM
      1 C1         -0.0187    1.5258    0.0104 C.3       1 <0>        -0.1468
      2 C2          0.0021   -0.0041    0.0020 C.3       1 <0>        -0.1345
      3 C3          0.7182   -0.4975   -1.2568 C.3       1 <0>        -0.0965
      4 C4          0.7390   -2.0273   -1.2652 C.3       1 <0>         0.0983
      5 C5         -0.6964   -2.5569   -1.2543 C.3       1 <0>        -0.1404
      6 C6          1.4678   -2.5265   -0.0443 C.2       1 <0>         0.5041
      7 O1          1.0579   -2.2436    1.0686 O.co2     1 <0>        -0.6915
      8 O2          2.4674   -3.2133   -0.1694 O.co2     1 <0>        -0.6780
      9 N1          1.4247   -2.4998   -2.4705 N.am      1 <0>        -0.7066
     10 C7          1.5637   -3.8219   -2.6922 C.2       1 <0>         0.5308
     11 O3          1.1212   -4.6205   -1.8939 O.2       1 <0>        -0.5155
     12 C8          2.2691   -4.3079   -3.9321 C.3       1 <0>        -0.1453
     13 H1          3.2916   -3.9319   -3.9672 H         1 <0>         0.1047
     14 C9          2.2477   -5.8589   -4.0081 C.3       1 <0>        -0.1335
     15 C10         2.3161   -6.0793   -5.5403 C.3       1 <0>         0.0507
     16 O4          1.5352   -5.0154   -6.1075 O.3       1 <0>        -0.3864
     17 C11         1.4905   -3.9020   -5.2020 C.3       1 <0>         0.0647
     18 H2          1.0039    1.9031    0.0027 H         1 <0>         0.0465
     19 H3         -0.5459    1.8868   -0.8726 H         1 <0>         0.0411
     20 H4         -0.5289    1.8773    0.9072 H         1 <0>         0.0480
     21 H5          0.5293   -0.3651    0.8851 H         1 <0>         0.1086
     22 H6         -1.0205   -0.3814    0.0098 H         1 <0>         0.0566
     23 H7          0.1910   -0.1364   -2.1398 H         1 <0>         0.0473
     24 H8          1.7408   -0.1202   -1.2645 H         1 <0>         0.0543
     25 H9         -1.2236   -2.1958   -2.1374 H         1 <0>         0.0344
     26 H10        -0.6816   -3.6468   -1.2603 H         1 <0>         0.0661
     27 H11        -1.2066   -2.2054   -0.3575 H         1 <0>         0.0660
     28 H12         1.7786   -1.8611   -3.1090 H         1 <0>         0.3833
     29 H13         3.1168   -6.2887   -3.5102 H         1 <0>         0.0868
     30 H14         1.3222   -6.2598   -3.5946 H         1 <0>         0.0918
     31 H15         3.3480   -6.0168   -5.8858 H         1 <0>         0.0596
     32 H16         1.8861   -7.0458   -5.8031 H         1 <0>         0.0854
     33 H17         0.4556   -3.6765   -4.9449 H         1 <0>         0.0729
     34 H18         1.9577   -3.0297   -5.6591 H         1 <0>         0.0730
@<TRIPOS>BOND
     1    1    2 1
     2    1   18 1
     3    1   19 1
     4    1   20 1
     5    2    3 1
     6    2   21 1
     7    2   22 1
     8    3    4 1
     9    3   23 1
    10    3   24 1
    11    4    5 1
    12    4    6 1
    13    4    9 1
    14    5   25 1
    15    5   26 1
    16    5   27 1
    17    6    7 2
    18    6    8 1
    19    9   10 am
    20    9   28 1
    21   10   11 2
    22   10   12 1
    23   12   13 1
    24   12   17 1
    25   12   14 1
    26   14   15 1
    27   14   29 1
    28   14   30 1
    29   15   16 1
    30   15   31 1
    31   15   32 1
    32   16   17 1
    33   17   33 1
    34   17   34 1
@<TRIPOS>MOLECULE
ZINC50920124
   31    31     0     0     0
SMALL
USER_CHARGES

@<TRIPOS>ATOM
      1 C1         -0.0187    1.5292    0.0105 C.3       1 <0>        -0.0956
      2 C2          1.4267    2.0327   -0.0006 C.3       1 <0>        -0.1361
      3 C3          2.2044    1.3299   -1.0761 C.2       1 <0>         0.5194
      4 O1          3.2516    1.8208   -1.4412 O.2       1 <0>        -0.5732
      5 N1          1.8049    0.1951   -1.6513 N.am      1 <0>        -0.5994
      6 C4          0.5491   -0.4784   -1.3452 C.3       1 <0>         0.1354
      7 C5          0.0021   -0.0041    0.0020 C.3       1 <0>        -0.1699
      8 H1          0.6437   -0.3655    0.8056 H         1 <0>         0.0709
      9 C6         -1.3973   -0.5298    0.1926 C.2       1 <0>         0.5020
     10 O2         -2.3278    0.2471    0.3235 O.co2     1 <0>        -0.6885
     11 O3         -1.5990   -1.7320    0.2160 O.co2     1 <0>        -0.6962
     12 C7          2.6832   -0.4125   -2.6542 C.3       1 <0>         0.1080
     13 C8          3.6480   -1.3812   -1.9674 C.3       1 <0>        -0.1314
     14 C9          4.5652   -2.0158   -3.0147 C.3       1 <0>        -0.1153
     15 C10         5.5300   -2.9844   -2.3279 C.3       1 <0>         0.0754
     16 O4          6.3867   -3.5771   -3.3062 O.3       1 <0>        -0.5772
     17 H2         -0.5242    1.8844    0.9085 H         1 <0>         0.0775
     18 H3         -0.5412    1.8940   -0.8739 H         1 <0>         0.0649
     19 H4          1.4348    3.1060   -0.1906 H         1 <0>         0.0928
     20 H5          1.8868    1.8342    0.9674 H         1 <0>         0.0926
     21 H6         -0.1777   -0.2582   -2.1271 H         1 <0>         0.0616
     22 H7          0.7175   -1.5546   -1.3068 H         1 <0>         0.0772
     23 H8          2.0813   -0.9550   -3.3833 H         1 <0>         0.0755
     24 H9          3.2511    0.3680   -3.1605 H         1 <0>         0.0852
     25 H10         4.2498   -0.8387   -1.2383 H         1 <0>         0.0670
     26 H11         3.0801   -2.1617   -1.4611 H         1 <0>         0.0676
     27 H12         3.9634   -2.5583   -3.7439 H         1 <0>         0.0705
     28 H13         5.1331   -1.2352   -3.5211 H         1 <0>         0.0703
     29 H14         6.1318   -2.4419   -1.5988 H         1 <0>         0.0450
     30 H15         4.9621   -3.7650   -1.8216 H         1 <0>         0.0466
     31 H16         7.0261   -4.2039   -2.9410 H         1 <0>         0.3775
@<TRIPOS>BOND
     1    1    7 1
     2    1    2 1
     3    1   17 1
     4    1   18 1
     5    2    3 1
     6    2   19 1
     7    2   20 1
     8    3    4 2
     9    3    5 am
    10    5    6 1
    11    5   12 1
    12    6    7 1
    13    6   21 1
    14    6   22 1
    15    7    8 1
    16    7    9 1
    17    9   10 2
    18    9   11 1
    19   12   13 1
    20   12   23 1
    21   12   24 1
    22   13   14 1
    23   13   25 1
    24   13   26 1
    25   14   15 1
    26   14   27 1
    27   14   28 1
    28   15   16 1
    29   15   29 1
    30   15   30 1
    31   16   31 1
@<TRIPOS>MOLECULE
ZINC61712892
   34    35     0     0     0
SMALL
USER_CHARGES

@<TRIPOS>ATOM
      1 C1          0.9906    1.5777   -0.1408 C.3       1 <0>        -0.1177
      2 C2          2.2315    2.0629   -0.8937 C.3       1 <0>        -0.1307
      3 C3          2.1748    1.5615   -2.3402 C.3       1 <0>         0.0469
      4 N1          2.0084    0.1018   -2.3285 N.am      1 <0>        -0.6036
      5 C4          0.8985   -0.4766   -1.5589 C.3       1 <0>         0.0896
      6 H1         -0.0500   -0.1829   -2.0084 H         1 <0>         0.0555
      7 C5          0.9696    0.0476   -0.1212 C.3       1 <0>        -0.1144
      8 C6          1.0133   -1.9793   -1.5581 C.2       1 <0>         0.5189
      9 O1          1.8913   -2.5232   -0.9101 O.co2     1 <0>        -0.6744
     10 O2          0.2283   -2.6510   -2.2054 O.co2     1 <0>        -0.7067
     11 C7          2.8575   -0.6916   -3.0112 C.2       1 <0>         0.7076
     12 O3          2.8263   -1.8964   -2.8501 O.2       1 <0>        -0.5063
     13 N2          3.7411   -0.1496   -3.8725 N.am      1 <0>        -0.6443
     14 C8          4.0283    1.2852   -4.0157 C.3       1 <0>         0.1005
     15 C9          5.1204    1.4282   -5.0967 C.3       1 <0>        -0.1687
     16 C10         5.7914    0.0292   -5.1000 C.3       1 <0>         0.0900
     17 H2          6.5320   -0.0507   -4.3043 H         1 <0>         0.0744
     18 C11         4.5843   -0.8976   -4.8227 C.3       1 <0>         0.1365
     19 O4          6.3775   -0.2547   -6.3719 O.3       1 <0>        -0.5566
     20 H3          1.0163    1.9536    0.8820 H         1 <0>         0.0559
     21 H4          0.0951    1.9468   -0.6407 H         1 <0>         0.0562
     22 H5          2.2582    3.1525   -0.8871 H         1 <0>         0.0637
     23 H6          3.1267    1.6737   -0.4086 H         1 <0>         0.0624
     24 H7          1.3303    2.0215   -2.8534 H         1 <0>         0.0536
     25 H8          3.1013    1.8196   -2.8530 H         1 <0>         0.1248
     26 H9          1.8766   -0.3227    0.3566 H         1 <0>         0.0717
     27 H10         0.0980   -0.2972    0.4352 H         1 <0>         0.0629
     28 H11         3.1275    1.8144   -4.3265 H         1 <0>         0.0746
     29 H12         4.3889    1.6873   -3.0690 H         1 <0>         0.0757
     30 H13         4.6756    1.6449   -6.0679 H         1 <0>         0.0853
     31 H14         5.8387    2.1998   -4.8195 H         1 <0>         0.0816
     32 H15         4.9192   -1.8342   -4.3768 H         1 <0>         0.0857
     33 H16         4.0370   -1.0901   -5.7454 H         1 <0>         0.0699
     34 H17         7.0766    0.3619   -6.6293 H         1 <0>         0.3797
@<TRIPOS>BOND
     1    1    7 1
     2    1    2 1
     3    1   20 1
     4    1   21 1
     5    2    3 1
     6    2   22 1
     7    2   23 1
     8    3    4 1
     9    3   24 1
    10    3   25 1
    11    4    5 1
    12    4   11 am
    13    5    6 1
    14    5    7 1
    15    5    8 1
    16    7   26 1
    17    7   27 1
    18    8    9 2
    19    8   10 1
    20   11   12 2
    21   11   13 am
    22   13   18 1
    23   13   14 1
    24   14   15 1
    25   14   28 1
    26   14   29 1
    27   15   16 1
    28   15   30 1
    29   15   31 1
    30   16   17 1
    31   16   18 1
    32   16   19 1
    33   18   32 1
    34   18   33 1
    35   19   34 1
@<TRIPOS>MOLECULE
ZINC00490726
   24    24     0     0     0
SMALL
USER_CHARGES
3-hydroxy-2-(3-pyridylcarbonylamino)propanoic acid
@<TRIPOS>ATOM
      1 C1         -1.2102    1.7694    0.0173 C.ar      1 <0>        -0.1811
      2 C2         -0.0126    1.0758    0.0080 C.ar      1 <0>        -0.0213
      3 C3          1.1792    1.8100    0.0005 C.ar      1 <0>        -0.1678
      4 C4          1.1122    3.2040    0.0082 C.ar      1 <0>         0.1328
      5 N1         -0.0523    3.8183    0.0226 N.ar      1 <0>        -0.4891
      6 C5         -1.1915    3.1523    0.0299 C.ar      1 <0>         0.1092
      7 C6          2.4869    1.1205   -0.0147 C.2       1 <0>         0.5599
      8 O1          2.5334   -0.0942   -0.0208 O.2       1 <0>        -0.5401
      9 N2          3.6274    1.8386   -0.0217 N.am      1 <0>        -0.6868
     10 C7          4.9232    1.1552   -0.0368 C.3       1 <0>         0.0963
     11 H1          4.8572    0.2383    0.5490 H         1 <0>         0.1028
     12 C8          5.9897    2.0708    0.5674 C.3       1 <0>         0.0892
     13 O2          6.1584    3.2197   -0.2654 O.3       1 <0>        -0.5613
     14 C9          5.2968    0.8180   -1.4573 C.2       1 <0>         0.4707
     15 O3          4.5566    1.1178   -2.3640 O.co2     1 <0>        -0.6245
     16 H2         -2.1495    1.2364    0.0191 H         1 <0>         0.1399
     17 H3          0.0021   -0.0041    0.0020 H         1 <0>         0.1469
     18 H4          2.0233    3.7839    0.0026 H         1 <0>         0.1595
     19 H5         -2.1245    3.6961    0.0417 H         1 <0>         0.1579
     20 H6          3.5903    2.8078   -0.0168 H         1 <0>         0.3966
     21 H7          5.6762    2.3863    1.5626 H         1 <0>         0.0405
     22 H8          6.9341    1.5313    0.6380 H         1 <0>         0.0678
     23 H9          6.8211    3.8456    0.0575 H         1 <0>         0.3702
     24 O4          6.4518    0.1847   -1.7152 O.co2     1 <0>        -0.7682
@<TRIPOS>BOND
     1    1    6 ar
     2    1    2 ar
     3    1   16 1
     4    2    3 ar
     5    2   17 1
     6    3    4 ar
     7    3    7 1
     8    4    5 ar
     9    4   18 1
    10    5    6 ar
    11    6   19 1
    12    7    8 2
    13    7    9 am
    14    9   10 1
    15    9   20 1
    16   10   11 1
    17   10   12 1
    18   10   14 1
    19   12   13 1
    20   12   21 1
    21   12   22 1
    22   13   23 1
    23   14   15 2
    24   14   24 1
@<TRIPOS>MOLECULE
ZINC36973055
   25    25     0     0     0
SMALL
USER_CHARGES

@<TRIPOS>ATOM
      1 C1         -0.0168    1.3913    0.0097 C.ar      1 <0>        -0.0680
      2 C2          1.1672    2.0966    0.0022 C.ar      1 <0>        -0.0718
      3 C3          2.3851    1.4154   -0.0131 C.ar      1 <0>        -0.0934
      4 C4          2.4040    0.0199   -0.0208 C.ar      1 <0>        -0.0940
      5 C5          1.2200   -0.6853   -0.0133 C.ar      1 <0>        -0.0922
      6 C6          0.0021   -0.0041    0.0020 C.ar      1 <0>        -0.1275
      7 C7         -1.2697   -0.7616    0.0106 C.2       1 <0>         0.5654
      8 O1         -2.3303   -0.1684    0.0243 O.2       1 <0>        -0.5404
      9 N1         -1.2514   -2.1092    0.0032 N.am      1 <0>        -0.8507
     10 C8          3.6569    2.1729   -0.0217 C.2       1 <0>         0.5389
     11 O2          3.6404    3.3880   -0.0154 O.2       1 <0>        -0.5505
     12 N2          4.8330    1.5150   -0.0365 N.am      1 <0>        -0.6893
     13 C9          6.0916    2.2647   -0.0450 C.3       1 <0>         0.0486
     14 C10         7.2502    1.3011   -0.0611 C.2       1 <0>         0.4909
     15 O3          7.0437    0.0995   -0.0652 O.co2     1 <0>        -0.6925
     16 O4          8.3940    1.7231   -0.0701 O.co2     1 <0>        -0.6858
     17 H1         -0.9593    1.9185    0.0260 H         1 <0>         0.1415
     18 H2          1.1525    3.1765    0.0078 H         1 <0>         0.1442
     19 H3          3.3465   -0.5073   -0.0330 H         1 <0>         0.1409
     20 H4          1.2346   -1.7652   -0.0196 H         1 <0>         0.1319
     21 H5         -0.4049   -2.5827   -0.0078 H         1 <0>         0.4027
     22 H6         -2.0848   -2.6056    0.0088 H         1 <0>         0.4047
     23 H7          4.8462    0.5451   -0.0415 H         1 <0>         0.4078
     24 H8          6.1322    2.8965   -0.9322 H         1 <0>         0.0693
     25 H9          6.1495    2.8875    0.8477 H         1 <0>         0.0693
@<TRIPOS>BOND
     1    1    6 ar
     2    1    2 ar
     3    1   17 1
     4    2    3 ar
     5    2   18 1
     6    3    4 ar
     7    3   10 1
     8    4    5 ar
     9    4   19 1
    10    5    6 ar
    11    5   20 1
    12    6    7 1
    13    7    8 2
    14    7    9 am
    15    9   21 1
    16    9   22 1
    17   10   11 2
    18   10   12 am
    19   12   13 1
    20   12   23 1
    21   13   14 1
    22   13   24 1
    23   13   25 1
    24   14   15 2
    25   14   16 1
@<TRIPOS>MOLECULE
ZINC40531898
   27    27     0     0     0
SMALL
USER_CHARGES

@<TRIPOS>ATOM
      1 C1         -0.0187    1.5258    0.0104 C.3       1 <0>        -0.1722
      2 C2          1.3165    0.7789   -0.0063 C.3       1 <0>        -0.1788
      3 C3          0.0021   -0.0041    0.0020 C.3       1 <0>        -0.1656
      4 C4         -0.4085   -0.7090   -1.2923 C.3       1 <0>         0.1722
      5 N1         -0.4408   -2.1568   -1.0708 N.am      1 <0>        -0.7509
      6 C5         -0.7788   -2.9854   -2.0786 C.2       1 <0>         0.7024
      7 O1         -1.0569   -2.5313   -3.1717 O.2       1 <0>        -0.5963
      8 N2         -0.8084   -4.3173   -1.8748 N.am      1 <0>        -0.7070
      9 C6         -1.1758   -5.2180   -2.9703 C.3       1 <0>         0.0892
     10 H1         -0.8011   -4.8165   -3.9119 H         1 <0>         0.0921
     11 C7         -0.5620   -6.5976   -2.7239 C.3       1 <0>         0.0865
     12 O2         -1.1402   -7.1736   -1.5509 O.3       1 <0>        -0.5518
     13 C8         -2.6763   -5.3406   -3.0381 C.2       1 <0>         0.4987
     14 O3         -3.2231   -5.5495   -4.1076 O.co2     1 <0>        -0.7035
     15 O4         -3.3434   -5.2308   -2.0235 O.co2     1 <0>        -0.6792
     16 H2         -0.3072    2.0201    0.9381 H         1 <0>         0.0956
     17 H3         -0.3248    2.0300   -0.9061 H         1 <0>         0.0973
     18 H4          1.8888    0.7918   -0.9339 H         1 <0>         0.0958
     19 H5          1.9064    0.7818    0.9103 H         1 <0>         0.0931
     20 H6         -0.2728   -0.5162    0.9241 H         1 <0>         0.1096
     21 H7         -1.3977   -0.3657   -1.5950 H         1 <0>         0.0671
     22 H8          0.3122   -0.4774   -2.0766 H         1 <0>         0.0630
     23 H9         -0.2189   -2.5191   -0.1988 H         1 <0>         0.3922
     24 H10        -0.5865   -4.6796   -1.0028 H         1 <0>         0.3923
     25 H11        -0.7603   -7.2418   -3.5805 H         1 <0>         0.0568
     26 H12         0.5146   -6.4970   -2.5864 H         1 <0>         0.0378
     27 H13        -0.7971   -8.0512   -1.3335 H         1 <0>         0.3637
@<TRIPOS>BOND
     1    1    3 1
     2    1    2 1
     3    1   16 1
     4    1   17 1
     5    2    3 1
     6    2   18 1
     7    2   19 1
     8    3    4 1
     9    3   20 1
    10    4    5 1
    11    4   21 1
    12    4   22 1
    13    5    6 am
    14    5   23 1
    15    6    7 2
    16    6    8 am
    17    8    9 1
    18    8   24 1
    19    9   10 1
    20    9   11 1
    21    9   13 1
    22   11   12 1
    23   11   25 1
    24   11   26 1
    25   12   27 1
    26   13   14 2
    27   13   15 1
@<TRIPOS>MOLECULE
ZINC40911176
   28    28     0     0     0
SMALL
USER_CHARGES

@<TRIPOS>ATOM
      1 C1         -0.0121    1.4809    0.0571 C.3       1 <0>        -0.1394
      2 C2          0.0212   -0.0486    0.0329 C.3       1 <0>         0.0928
      3 C3          0.7778   -0.5617    1.2597 C.3       1 <0>        -0.1350
      4 C4         -1.3881   -0.5820    0.0524 C.2       1 <0>         0.4995
      5 O1         -1.7895   -1.2774   -0.8650 O.co2     1 <0>        -0.6848
      6 O2         -2.1269   -0.3182    0.9858 O.co2     1 <0>        -0.6859
      7 N1          0.6985   -0.5031   -1.1840 N.pl3     1 <0>        -0.6496
      8 C5          2.0101   -0.1367   -1.4231 C.ar      1 <0>         0.4585
      9 C6          2.6897   -0.6584   -2.5374 C.ar      1 <0>        -0.2938
     10 C7          4.0164   -0.2724   -2.7588 C.ar      1 <0>         0.0077
     11 C8          4.6022    0.6090   -1.8674 C.ar      1 <0>        -0.2761
     12 C9          3.8687    1.0798   -0.7932 C.ar      1 <0>         0.1826
     13 N2          2.6176    0.7081   -0.6044 N.ar      1 <0>        -0.5405
     14 C10         2.0173   -1.5954   -3.4557 C.2       1 <0>         0.5702
     15 O3          0.8347   -1.8414   -3.3149 O.2       1 <0>        -0.5298
     16 N3          2.7132   -2.1794   -4.4513 N.am      1 <0>        -0.8558
     17 H1          1.0073    1.8667    0.0429 H         1 <0>         0.0748
     18 H2         -0.5511    1.8465   -0.8169 H         1 <0>         0.0380
     19 H3         -0.5160    1.8191    0.9625 H         1 <0>         0.0607
     20 H4          0.2739   -0.2235    2.1651 H         1 <0>         0.0636
     21 H5          0.8015   -1.6513    1.2424 H         1 <0>         0.0392
     22 H6          1.7972   -0.1759    1.2455 H         1 <0>         0.0638
     23 H7          0.2268   -1.0611   -1.8220 H         1 <0>         0.4341
     24 H8          4.5697   -0.6534   -3.6045 H         1 <0>         0.1262
     25 H9          5.6247    0.9268   -2.0090 H         1 <0>         0.1277
     26 H10         4.3279    1.7674   -0.0984 H         1 <0>         0.1529
     27 H11         3.6564   -1.9832   -4.5636 H         1 <0>         0.3965
     28 H12         2.2707   -2.7959   -5.0555 H         1 <0>         0.4019
@<TRIPOS>BOND
     1    1    2 1
     2    1   17 1
     3    1   18 1
     4    1   19 1
     5    2    3 1
     6    2    4 1
     7    2    7 1
     8    3   20 1
     9    3   21 1
    10    3   22 1
    11    4    5 2
    12    4    6 1
    13    7    8 1
    14    7   23 1
    15    8   13 ar
    16    8    9 ar
    17    9   10 ar
    18    9   14 1
    19   10   11 ar
    20   10   24 1
    21   11   12 ar
    22   11   25 1
    23   12   13 ar
    24   12   26 1
    25   14   15 2
    26   14   16 am
    27   16   27 1
    28   16   28 1
@<TRIPOS>MOLECULE
ZINC54768297
   32    32     0     0     0
SMALL
USER_CHARGES

@<TRIPOS>ATOM
      1 C1         -0.0187    1.5258    0.0104 C.3       1 <0>        -0.1819
      2 C2          0.0021   -0.0041    0.0020 C.3       1 <0>         0.1119
      3 H1          0.5123   -0.3556   -0.8948 H         1 <0>         0.0502
      4 C3          0.7421   -0.5109    1.2415 C.3       1 <0>         0.0780
      5 H2          0.2319   -0.1594    2.1383 H         1 <0>         0.0875
      6 C4          0.7625   -2.0177    1.2333 C.2       1 <0>         0.4934
      7 O1          1.8087   -2.6121    1.0367 O.co2     1 <0>        -0.6954
      8 O2         -0.2672   -2.6424    1.4231 O.co2     1 <0>        -0.6778
      9 N1          2.1165   -0.0038    1.2311 N.am      1 <0>        -0.6912
     10 C5          2.7950    0.1277    2.3882 C.2       1 <0>         0.5225
     11 O3          2.2678   -0.1736    3.4380 O.2       1 <0>        -0.5422
     12 C6          4.2088    0.6494    2.3775 C.3       1 <0>        -0.1412
     13 H3          4.8361   -0.0109    1.7787 H         1 <0>         0.1055
     14 C7          4.7452    0.7037    3.8112 C.3       1 <0>        -0.1017
     15 C8          6.1528    1.3077    3.7955 C.3       1 <0>        -0.1558
     16 C9          6.0986    2.6914    3.1426 C.3       1 <0>         0.0583
     17 O4          5.5620    2.5735    1.8234 O.3       1 <0>        -0.3799
     18 C10         4.2299    2.0578    1.7779 C.3       1 <0>         0.0738
     19 O5         -1.3386   -0.4987    0.0122 O.3       1 <0>        -0.5335
     20 H4          1.0039    1.9031    0.0027 H         1 <0>         0.0612
     21 H5         -0.5459    1.8868   -0.8726 H         1 <0>         0.0537
     22 H6         -0.5289    1.8773    0.9072 H         1 <0>         0.0614
     23 H7          2.5382    0.2372    0.3915 H         1 <0>         0.3896
     24 H8          4.0893    1.3234    4.4227 H         1 <0>         0.0708
     25 H9          4.7856   -0.3043    4.2239 H         1 <0>         0.0765
     26 H10         6.5205    1.4013    4.8173 H         1 <0>         0.0751
     27 H11         6.8200    0.6617    3.2250 H         1 <0>         0.0723
     28 H12         5.4632    3.3488    3.7361 H         1 <0>         0.0502
     29 H13         7.1044    3.1081    3.0899 H         1 <0>         0.0926
     30 H14         3.8898    2.0175    0.7431 H         1 <0>         0.0974
     31 H15         3.5699    2.7075    2.3526 H         1 <0>         0.0556
     32 H16        -1.8677   -0.2163   -0.7464 H         1 <0>         0.3632
@<TRIPOS>BOND
     1    1    2 1
     2    1   20 1
     3    1   21 1
     4    1   22 1
     5    2    3 1
     6    2    4 1
     7    2   19 1
     8    4    5 1
     9    4    6 1
    10    4    9 1
    11    6    7 2
    12    6    8 1
    13    9   10 am
    14    9   23 1
    15   10   11 2
    16   10   12 1
    17   12   13 1
    18   12   18 1
    19   12   14 1
    20   14   15 1
    21   14   24 1
    22   14   25 1
    23   15   16 1
    24   15   26 1
    25   15   27 1
    26   16   17 1
    27   16   28 1
    28   16   29 1
    29   17   18 1
    30   18   30 1
    31   18   31 1
    32   19   32 1
@<TRIPOS>MOLECULE
ZINC40470930
   34    35     0     0     0
SMALL
USER_CHARGES

@<TRIPOS>ATOM
      1 C1         -0.0187    1.5258    0.0104 C.3       1 <0>        -0.1822
      2 C2          0.0021   -0.0041    0.0020 C.3       1 <0>         0.1121
      3 H1          0.5123   -0.3556   -0.8948 H         1 <0>         0.0496
      4 C3          0.7421   -0.5109    1.2415 C.3       1 <0>         0.0793
      5 H2          0.2319   -0.1594    2.1383 H         1 <0>         0.0885
      6 C4          0.7625   -2.0177    1.2333 C.2       1 <0>         0.4938
      7 O1          1.8087   -2.6121    1.0367 O.co2     1 <0>        -0.6940
      8 O2         -0.2672   -2.6424    1.4231 O.co2     1 <0>        -0.6790
      9 N1          2.1165   -0.0038    1.2311 N.am      1 <0>        -0.6884
     10 C5          2.7950    0.1277    2.3882 C.2       1 <0>         0.5648
     11 O3          2.2664   -0.1744    3.4407 O.2       1 <0>        -0.5483
     12 C6          4.1790    0.6384    2.3777 C.ar      1 <0>        -0.1689
     13 C7          4.7896    0.9927    1.1710 C.ar      1 <0>        -0.0386
     14 C8          6.0779    1.4676    1.1647 C.ar      1 <0>        -0.1894
     15 C9          6.7915    1.6012    2.3622 C.ar      1 <0>         0.2105
     16 C10         6.1807    1.2479    3.5591 C.ar      1 <0>        -0.1865
     17 C11         4.8871    0.7768    3.5744 C.ar      1 <0>        -0.0014
     18 C12         7.1607    1.4870    4.6861 C.3       1 <0>        -0.0821
     19 C13         8.4215    2.0255    3.9900 C.3       1 <0>         0.1184
     20 N2          8.0891    2.0567    2.5635 N.pl3     1 <0>        -0.7432
     21 O4         -1.3386   -0.4987    0.0122 O.3       1 <0>        -0.5332
     22 H3          1.0039    1.9031    0.0027 H         1 <0>         0.0618
     23 H4         -0.5459    1.8868   -0.8726 H         1 <0>         0.0528
     24 H5         -0.5289    1.8773    0.9072 H         1 <0>         0.0619
     25 H6          2.5382    0.2372    0.3915 H         1 <0>         0.3879
     26 H7          4.2473    0.8924    0.2424 H         1 <0>         0.1268
     27 H8          6.5444    1.7397    0.2294 H         1 <0>         0.1207
     28 H9          4.4209    0.5098    4.5114 H         1 <0>         0.1333
     29 H10         6.7660    2.2259    5.3835 H         1 <0>         0.0835
     30 H11         7.3810    0.5533    5.2036 H         1 <0>         0.0844
     31 H12         8.6508    3.0296    4.3469 H         1 <0>         0.0657
     32 H13         9.2652    1.3586    4.1671 H         1 <0>         0.0662
     33 H14         8.6885    2.3527    1.8606 H         1 <0>         0.4108
     34 H15        -1.8677   -0.2163   -0.7464 H         1 <0>         0.3626
@<TRIPOS>BOND
     1    1    2 1
     2    1   22 1
     3    1   23 1
     4    1   24 1
     5    2    3 1
     6    2    4 1
     7    2   21 1
     8    4    5 1
     9    4    6 1
    10    4    9 1
    11    6    7 2
    12    6    8 1
    13    9   10 am
    14    9   25 1
    15   10   11 2
    16   10   12 1
    17   12   17 ar
    18   12   13 ar
    19   13   14 ar
    20   13   26 1
    21   14   15 ar
    22   14   27 1
    23   15   20 1
    24   15   16 ar
    25   16   17 ar
    26   16   18 1
    27   17   28 1
    28   18   19 1
    29   18   29 1
    30   18   30 1
    31   19   20 1
    32   19   31 1
    33   19   32 1
    34   20   33 1
    35   21   34 1
@<TRIPOS>MOLECULE
ZINC40710274
   39    39     0     0     0
SMALL
USER_CHARGES

@<TRIPOS>ATOM
      1 C1         -0.0187    1.5258    0.0104 C.3       1 <0>        -0.1455
      2 C2          0.0021   -0.0041    0.0020 C.3       1 <0>        -0.0887
      3 H1          0.5123   -0.3556   -0.8948 H         1 <0>         0.0721
      4 C3         -1.4333   -0.5336    0.0129 C.3       1 <0>        -0.1143
      5 C4         -1.4126   -2.0635    0.0045 C.3       1 <0>        -0.1165
      6 C5         -0.6726   -2.5703    1.2440 C.3       1 <0>        -0.1328
      7 C6          0.7628   -2.0407    1.2331 C.3       1 <0>         0.1676
      8 H2          1.2730   -2.3923    0.3363 H         1 <0>         0.0843
      9 C7          0.7421   -0.5109    1.2415 C.3       1 <0>        -0.1191
     10 N1          1.4714   -2.5260    2.4200 N.am      1 <0>        -0.7500
     11 C8          2.0564   -3.7401    2.4061 C.2       1 <0>         0.7042
     12 O1          1.9961   -4.4326    1.4085 O.2       1 <0>        -0.5921
     13 N2          2.7083   -4.1866    3.4980 N.am      1 <0>        -0.7143
     14 C9          3.3442   -5.5063    3.4829 C.3       1 <0>         0.0977
     15 H3          3.7418   -5.7067    2.4880 H         1 <0>         0.0830
     16 C10         4.4842   -5.5348    4.5029 C.3       1 <0>        -0.1099
     17 C11         5.5771   -4.5539    4.0738 C.3       1 <0>         0.0788
     18 O2          6.6419   -4.5805    5.0265 O.3       1 <0>        -0.5761
     19 C12         2.3258   -6.5587    3.8382 C.2       1 <0>         0.4929
     20 O3          2.4303   -7.6858    3.3851 O.co2     1 <0>        -0.6941
     21 O4          1.3973   -6.2832    4.5788 O.co2     1 <0>        -0.6899
     22 H4          1.0039    1.9031    0.0027 H         1 <0>         0.0534
     23 H5         -0.5459    1.8868   -0.8726 H         1 <0>         0.0538
     24 H6         -0.5289    1.8773    0.9072 H         1 <0>         0.0536
     25 H7         -1.9435   -0.1821    0.9097 H         1 <0>         0.0613
     26 H8         -1.9605   -0.1726   -0.8702 H         1 <0>         0.0601
     27 H9         -2.4352   -2.4408    0.0122 H         1 <0>         0.0625
     28 H10        -0.9024   -2.4150   -0.8923 H         1 <0>         0.0632
     29 H11        -1.1828   -2.2188    2.1408 H         1 <0>         0.0606
     30 H12        -0.6578   -3.6602    1.2380 H         1 <0>         0.0721
     31 H13         1.7647   -0.1336    1.2338 H         1 <0>         0.0660
     32 H14         0.2319   -0.1594    2.1383 H         1 <0>         0.0658
     33 H15         1.5195   -1.9736    3.2158 H         1 <0>         0.3898
     34 H16         2.7563   -3.6341    4.2938 H         1 <0>         0.3873
     35 H17         4.1024   -5.2475    5.4826 H         1 <0>         0.0713
     36 H18         4.8995   -6.5412    4.5557 H         1 <0>         0.0835
     37 H19         5.9589   -4.8412    3.0941 H         1 <0>         0.0441
     38 H20         5.1618   -3.5475    4.0211 H         1 <0>         0.0425
     39 H21         7.3716   -3.9813    4.8177 H         1 <0>         0.3717
@<TRIPOS>BOND
     1    1    2 1
     2    1   22 1
     3    1   23 1
     4    1   24 1
     5    2    3 1
     6    2    9 1
     7    2    4 1
     8    4    5 1
     9    4   25 1
    10    4   26 1
    11    5    6 1
    12    5   27 1
    13    5   28 1
    14    6    7 1
    15    6   29 1
    16    6   30 1
    17    7    8 1
    18    7    9 1
    19    7   10 1
    20    9   31 1
    21    9   32 1
    22   10   11 am
    23   10   33 1
    24   11   12 2
    25   11   13 am
    26   13   14 1
    27   13   34 1
    28   14   15 1
    29   14   16 1
    30   14   19 1
    31   16   17 1
    32   16   35 1
    33   16   36 1
    34   17   18 1
    35   17   37 1
    36   17   38 1
    37   18   39 1
    38   19   20 2
    39   19   21 1
@<TRIPOS>MOLECULE
ZINC44511138
   40    41     0     0     0
SMALL
USER_CHARGES

@<TRIPOS>ATOM
      1 C1         -0.0187    1.5258    0.0104 C.3       1 <0>        -0.1367
      2 C2          0.0021   -0.0041    0.0020 C.3       1 <0>         0.1465
      3 C3          0.7421   -0.5109    1.2415 C.3       1 <0>        -0.1473
      4 C4         -0.0071   -1.4702    2.1685 C.3       1 <0>        -0.1784
      5 C5          0.2483   -0.0266    2.6063 C.3       1 <0>        -0.1612
      6 C6         -1.4117   -0.5257    0.0127 C.2       1 <0>         0.5069
      7 O1         -1.8097   -1.2271   -0.9017 O.co2     1 <0>        -0.6729
      8 O2         -2.1576   -0.2463    0.9358 O.co2     1 <0>        -0.6991
      9 N1          0.6878   -0.4765   -1.2033 N.am      1 <0>        -0.7197
     10 C7          0.2113   -0.1507   -2.4212 C.2       1 <0>         0.7132
     11 O3         -0.7877    0.5354   -2.5195 O.2       1 <0>        -0.5679
     12 N2          0.8421   -0.5853   -3.5301 N.am      1 <0>        -0.7589
     13 C8          0.3242   -0.2311   -4.8539 C.3       1 <0>         0.1462
     14 C9          1.2179   -0.8463   -5.9326 C.3       1 <0>        -0.1279
     15 C10         0.6770   -0.4764   -7.3151 C.3       1 <0>         0.0841
     16 H1          0.5693    0.6048   -7.4017 H         1 <0>         0.0743
     17 C11         1.6185   -1.0134   -8.4223 C.3       1 <0>        -0.1512
     18 C12         0.6340   -1.1240   -9.6184 C.3       1 <0>        -0.1565
     19 C13        -0.6858   -1.5177   -8.9210 C.3       1 <0>         0.0490
     20 O4         -0.5846   -1.1232   -7.5463 O.3       1 <0>        -0.3730
     21 H2          1.0039    1.9031    0.0027 H         1 <0>         0.0333
     22 H3         -0.5459    1.8868   -0.8726 H         1 <0>         0.0687
     23 H4         -0.5289    1.8773    0.9072 H         1 <0>         0.0614
     24 H5          1.8144   -0.6633    1.1193 H         1 <0>         0.0902
     25 H6         -1.0272   -1.7403    1.8953 H         1 <0>         0.1189
     26 H7          0.5723   -2.2541    2.6563 H         1 <0>         0.0752
     27 H8          0.9958    0.1392    3.3821 H         1 <0>         0.0788
     28 H9         -0.6037    0.6530    2.6211 H         1 <0>         0.1069
     29 H10         1.4848   -1.0239   -1.1249 H         1 <0>         0.3784
     30 H11         1.6391   -1.1327   -3.4516 H         1 <0>         0.3850
     31 H12        -0.6908   -0.6138   -4.9612 H         1 <0>         0.0702
     32 H13         0.3170    0.8534   -4.9630 H         1 <0>         0.0571
     33 H14         2.2329   -0.4637   -5.8252 H         1 <0>         0.0783
     34 H15         1.2251   -1.9308   -5.8235 H         1 <0>         0.0756
     35 H16         2.4182   -0.3043   -8.6360 H         1 <0>         0.0825
     36 H17         2.0228   -1.9897   -8.1548 H         1 <0>         0.0796
     37 H18         0.5329   -0.1655  -10.1274 H         1 <0>         0.0757
     38 H19         0.9529   -1.9014  -10.3127 H         1 <0>         0.0800
     39 H20        -1.5216   -1.0002   -9.3921 H         1 <0>         0.0669
     40 H21        -0.8319   -2.5958   -8.9876 H         1 <0>         0.0678
@<TRIPOS>BOND
     1    1    2 1
     2    1   21 1
     3    1   22 1
     4    1   23 1
     5    2    3 1
     6    2    6 1
     7    2    9 1
     8    3    5 1
     9    3    4 1
    10    3   24 1
    11    4    5 1
    12    4   25 1
    13    4   26 1
    14    5   27 1
    15    5   28 1
    16    6    7 2
    17    6    8 1
    18    9   10 am
    19    9   29 1
    20   10   11 2
    21   10   12 am
    22   12   13 1
    23   12   30 1
    24   13   14 1
    25   13   31 1
    26   13   32 1
    27   14   15 1
    28   14   33 1
    29   14   34 1
    30   15   16 1
    31   15   20 1
    32   15   17 1
    33   17   18 1
    34   17   35 1
    35   17   36 1
    36   18   19 1
    37   18   37 1
    38   18   38 1
    39   19   20 1
    40   19   39 1
    41   19   40 1
@<TRIPOS>MOLECULE
ZINC50199517
   33    33     0     0     0
SMALL
USER_CHARGES

@<TRIPOS>ATOM
      1 C1          0.9313    1.4145   -0.6289 C.3       1 <0>        -0.1417
      2 C2          2.4443    1.6437   -0.5826 C.3       1 <0>         0.0707
      3 O1          2.9429    1.2657    0.7021 O.3       1 <0>        -0.3812
      4 C3          2.7373   -0.1109    1.0258 C.3       1 <0>         0.0691
      5 C4          1.2361   -0.4106    1.0442 C.3       1 <0>        -0.1427
      6 C5          0.6359   -0.0564   -0.3198 C.3       1 <0>        -0.6094
      7 S1         -1.1584   -0.3197   -0.2801 S.o2      1 <0>         2.6149
      8 O2         -1.7165    0.2862    0.8778 O.2       1 <0>        -0.9678
      9 O3         -1.7170   -0.0788   -1.5643 O.2       1 <0>        -0.9344
     10 N1         -1.3445   -1.9471   -0.0369 N.pl3     1 <0>        -1.0853
     11 C6         -0.9155   -2.8956   -1.0677 C.3       1 <0>         0.0876
     12 H1         -0.1222   -2.4476   -1.6661 H         1 <0>         0.0738
     13 C7         -0.3940   -4.1707   -0.4021 C.3       1 <0>        -0.1078
     14 C8          0.8319   -3.8365    0.4502 C.3       1 <0>         0.0732
     15 O4          1.3900   -5.0426    0.9754 O.3       1 <0>        -0.5725
     16 C9         -2.0845   -3.2346   -1.9562 C.2       1 <0>         0.4900
     17 O5         -3.1951   -2.8064   -1.6922 O.co2     1 <0>        -0.6705
     18 O6         -1.9197   -3.9371   -2.9389 O.co2     1 <0>        -0.6962
     19 H2          0.4442    2.0475    0.1128 H         1 <0>         0.0853
     20 H3          0.5558    1.6606   -1.6221 H         1 <0>         0.0918
     21 H4          2.9270    1.0408   -1.3517 H         1 <0>         0.0553
     22 H5          2.6578    2.6979   -0.7596 H         1 <0>         0.1002
     23 H6          3.2238   -0.7368    0.2778 H         1 <0>         0.0531
     24 H7          3.1619   -0.3208    2.0075 H         1 <0>         0.0983
     25 H8          1.0786   -1.4699    1.2475 H         1 <0>         0.0883
     26 H9          0.7551    0.1855    1.8197 H         1 <0>         0.0909
     27 H10         1.0814   -0.6872   -1.0891 H         1 <0>         0.1342
     28 H11        -1.7376   -2.2724    0.7881 H         1 <0>         0.4126
     29 H12        -1.1729   -4.5942    0.2320 H         1 <0>         0.0726
     30 H13        -0.1170   -4.8938   -1.1693 H         1 <0>         0.0886
     31 H14         1.5753   -3.3301   -0.1655 H         1 <0>         0.0412
     32 H15         0.5361   -3.1849    1.2723 H         1 <0>         0.0460
     33 H16         2.1724   -4.9063    1.5271 H         1 <0>         0.3719
@<TRIPOS>BOND
     1    1    6 1
     2    1    2 1
     3    1   19 1
     4    1   20 1
     5    2    3 1
     6    2   21 1
     7    2   22 1
     8    3    4 1
     9    4    5 1
    10    4   23 1
    11    4   24 1
    12    5    6 1
    13    5   25 1
    14    5   26 1
    15    6    7 1
    16    6   27 1
    17    7    8 2
    18    7    9 2
    19    7   10 1
    20   10   11 1
    21   10   28 1
    22   11   12 1
    23   11   13 1
    24   11   16 1
    25   13   14 1
    26   13   29 1
    27   13   30 1
    28   14   15 1
    29   14   31 1
    30   14   32 1
    31   15   33 1
    32   16   17 2
    33   16   18 1
@<TRIPOS>MOLECULE
ZINC62100871
   39    39     0     0     0
SMALL
USER_CHARGES

@<TRIPOS>ATOM
      1 C1         -0.0175    1.5251    0.0222 C.3       1 <0>        -0.1468
      2 C2          0.0029   -0.0047    0.0104 C.3       1 <0>        -0.1342
      3 C3         -1.4326   -0.5340    0.0202 C.3       1 <0>        -0.0960
      4 C4         -1.4122   -2.0638    0.0084 C.3       1 <0>         0.1140
      5 C5         -0.6963   -2.5546   -1.2516 C.3       1 <0>        -0.1415
      6 C6         -0.6833   -2.5659    1.2281 C.2       1 <0>         0.5031
      7 O1         -1.2586   -3.2808    2.0308 O.co2     1 <0>        -0.6773
      8 O2          0.4818   -2.2572    1.4121 O.co2     1 <0>        -0.6924
      9 N1         -2.7867   -2.5706    0.0178 N.am      1 <0>        -0.7198
     10 C7         -3.0152   -3.8988    0.0099 C.2       1 <0>         0.7169
     11 O3         -2.0856   -4.6751   -0.0976 O.2       1 <0>        -0.5648
     12 N2         -4.2743   -4.3667    0.1212 N.am      1 <0>        -0.6379
     13 C8         -4.4807   -5.8095    0.2300 C.3       1 <0>         0.1409
     14 C9         -5.2679   -6.3077   -0.9876 C.3       1 <0>        -0.1551
     15 C10        -6.7340   -6.0095   -0.7694 C.2       1 <0>         0.5203
     16 O4         -7.5062   -6.9172   -0.5443 O.2       1 <0>        -0.5548
     17 N3         -7.1849   -4.7527   -0.8226 N.am      1 <0>        -0.7253
     18 C11        -6.2672   -3.6394   -1.1006 C.3       1 <0>         0.0906
     19 C12        -5.3796   -3.4117    0.1342 C.3       1 <0>         0.0938
     20 H1          1.0052    1.9022    0.0152 H         1 <0>         0.0481
     21 H2         -0.5447    1.8883   -0.8600 H         1 <0>         0.0408
     22 H3         -0.5275    1.8747    0.9199 H         1 <0>         0.0464
     23 H4          0.5129   -0.3543   -0.8873 H         1 <0>         0.0571
     24 H5          0.5301   -0.3679    0.8926 H         1 <0>         0.1091
     25 H6         -1.9426   -0.1844    0.9179 H         1 <0>         0.0535
     26 H7         -1.9598   -0.1708   -0.8620 H         1 <0>         0.0465
     27 H8          0.3264   -2.1775   -1.2586 H         1 <0>         0.0639
     28 H9         -0.6817   -3.6444   -1.2600 H         1 <0>         0.0718
     29 H10        -1.2235   -2.1914   -2.1338 H         1 <0>         0.0321
     30 H11        -3.5323   -1.9503    0.0297 H         1 <0>         0.3780
     31 H12        -3.5146   -6.3127    0.2685 H         1 <0>         0.1116
     32 H13        -5.0407   -6.0287    1.1391 H         1 <0>         0.0651
     33 H14        -4.9195   -5.7942   -1.8837 H         1 <0>         0.0935
     34 H15        -5.1260   -7.3825   -1.1002 H         1 <0>         0.1062
     35 H16        -8.1270   -4.5736   -0.6767 H         1 <0>         0.3987
     36 H17        -5.6443   -3.8855   -1.9605 H         1 <0>         0.0827
     37 H18        -6.8410   -2.7365   -1.3092 H         1 <0>         0.0959
     38 H19        -5.9699   -3.5528    1.0396 H         1 <0>         0.0738
     39 H20        -4.9822   -2.3969    0.1158 H         1 <0>         0.0913
@<TRIPOS>BOND
     1    1    2 1
     2    1   20 1
     3    1   21 1
     4    1   22 1
     5    2    3 1
     6    2   23 1
     7    2   24 1
     8    3    4 1
     9    3   25 1
    10    3   26 1
    11    4    5 1
    12    4    6 1
    13    4    9 1
    14    5   27 1
    15    5   28 1
    16    5   29 1
    17    6    7 2
    18    6    8 1
    19    9   10 am
    20    9   30 1
    21   10   11 2
    22   10   12 am
    23   12   19 1
    24   12   13 1
    25   13   14 1
    26   13   31 1
    27   13   32 1
    28   14   15 1
    29   14   33 1
    30   14   34 1
    31   15   16 2
    32   15   17 am
    33   17   18 1
    34   17   35 1
    35   18   19 1
    36   18   36 1
    37   18   37 1
    38   19   38 1
    39   19   39 1
@<TRIPOS>MOLECULE
ZINC05919920
   57    60     0     0     0
SMALL
USER_CHARGES
hydroxy-(hydroxymethyl)-trimethyl-BLAHone
@<TRIPOS>ATOM
      1 C1          0.0481    0.8899   -2.7623 C.3       1 <0>        -0.1541
      2 C2         -0.6594    1.5031   -1.5481 C.3       1 <0>        -0.0969
      3 H1         -0.6041    2.5889   -1.6349 H         1 <0>         0.0810
      4 C3          0.0787    1.0558   -0.2844 C.3       1 <0>        -0.1112
      5 C4         -0.6226    1.6139    0.9587 C.3       1 <0>        -0.1163
      6 C5         -2.0642    1.1043    0.9764 C.3       1 <0>        -0.0582
      7 H2         -1.9956   -0.0051    0.8599 H         1 <0>         0.0759
      8 C6         -2.8100    1.6172   -0.2486 C.3       1 <0>        -0.0350
      9 C7         -2.1161    1.0544   -1.5046 C.3       1 <0>         0.1357
     10 C8         -2.8673    1.5319   -2.7556 C.3       1 <0>        -0.1357
     11 C9         -3.1576    0.2597   -3.5587 C.3       1 <0>        -0.1259
     12 C10        -4.6554    0.1112   -3.8385 C.3       1 <0>        -0.1729
     13 C11        -4.7653   -0.0499   -5.3399 C.2       1 <0>         0.4823
     14 O1         -5.8057   -0.2460   -5.9409 O.2       1 <0>        -0.4586
     15 O2         -3.5616    0.0577   -5.9103 O.3       1 <0>        -0.3377
     16 C12        -2.5088    0.3111   -4.9419 C.3       1 <0>         0.0669
     17 C13        -2.6242   -0.9017   -2.7229 C.3       1 <0>         0.0673
     18 O3         -2.1972   -0.3731   -1.4621 O.3       1 <0>        -0.3525
     19 C14        -4.2577    1.1243   -0.2193 C.3       1 <0>        -0.1072
     20 C15        -4.9324    1.5905    1.0707 C.3       1 <0>        -0.1529
     21 C16        -4.2222    0.9862    2.2751 C.3       1 <0>         0.1248
     22 H3         -4.3132   -0.1039    2.2410 H         1 <0>         0.0448
     23 C17        -2.7393    1.3593    2.3072 C.3       1 <0>        -0.0329
     24 C18        -2.5741    2.7991    2.7896 C.3       1 <0>        -0.1336
     25 C19        -2.0785    0.4434    3.3663 C.3       1 <0>         0.0793
     26 O4         -2.6958    0.6615    4.6365 O.3       1 <0>        -0.5487
     27 O5         -4.8452    1.4543    3.4773 O.3       1 <0>        -0.5444
     28 C20        -2.7976    3.1425   -0.3398 C.3       1 <0>        -0.1573
     29 H4          0.0287   -0.1971   -2.6834 H         1 <0>         0.0604
     30 H5         -0.4635    1.1972   -3.6744 H         1 <0>         0.0510
     31 H6          1.0821    1.2336   -2.7922 H         1 <0>         0.0587
     32 H7          0.0893   -0.0332   -0.2368 H         1 <0>         0.0689
     33 H8          1.1039    1.4267   -0.3156 H         1 <0>         0.0623
     34 H9         -0.0874    1.2544    1.8404 H         1 <0>         0.0624
     35 H10        -0.5798    2.6969    0.9425 H         1 <0>         0.0689
     36 H11        -3.8110    2.0208   -2.4978 H         1 <0>         0.0935
     37 H12        -2.2616    2.2262   -3.3425 H         1 <0>         0.0897
     38 H13        -5.0508   -0.7713   -3.3307 H         1 <0>         0.1208
     39 H14        -5.1950    1.0009   -3.5084 H         1 <0>         0.1202
     40 H15        -2.0642    1.2965   -5.1123 H         1 <0>         0.1014
     41 H16        -1.7287   -0.4524   -5.0201 H         1 <0>         0.1051
     42 H17        -3.4184   -1.6460   -2.5724 H         1 <0>         0.0831
     43 H18        -1.7926   -1.3908   -3.2423 H         1 <0>         0.0711
     44 H19        -4.8034    1.5225   -1.0735 H         1 <0>         0.0637
     45 H20        -4.2708    0.0343   -0.2595 H         1 <0>         0.0720
     46 H21        -5.9743    1.2435    1.0643 H         1 <0>         0.0598
     47 H22        -4.9413    2.6749    1.1342 H         1 <0>         0.0746
     48 H23        -3.1164    3.4699    2.1233 H         1 <0>         0.0545
     49 H24        -2.9715    2.8915    3.8004 H         1 <0>         0.0746
     50 H25        -1.5166    3.0633    2.7894 H         1 <0>         0.0485
     51 H26        -2.2055   -0.5993    3.0749 H         1 <0>         0.0377
     52 H27        -1.0155    0.6747    3.4344 H         1 <0>         0.0430
     53 H28        -2.3309    0.1196    5.3494 H         1 <0>         0.3699
     54 H29        -5.7900    1.2560    3.5336 H         1 <0>         0.3669
     55 H30        -3.2207    3.4528   -1.2952 H         1 <0>         0.0568
     56 H31        -3.3915    3.5600    0.4733 H         1 <0>         0.0704
     57 H32        -1.7718    3.5028   -0.2626 H         1 <0>         0.0638
@<TRIPOS>BOND
     1    1    2 1
     2    1   29 1
     3    1   30 1
     4    1   31 1
     5    2    3 1
     6    2    9 1
     7    2    4 1
     8    4    5 1
     9    4   32 1
    10    4   33 1
    11    5    6 1
    12    5   34 1
    13    5   35 1
    14    6    7 1
    15    6   23 1
    16    6    8 1
    17    8    9 1
    18    8   19 1
    19    8   28 1
    20    9   18 1
    21    9   10 1
    22   10   11 1
    23   10   36 1
    24   10   37 1
    25   11   16 1
    26   11   12 1
    27   11   17 1
    28   12   13 1
    29   12   38 1
    30   12   39 1
    31   13   14 2
    32   13   15 1
    33   15   16 1
    34   16   40 1
    35   16   41 1
    36   17   18 1
    37   17   42 1
    38   17   43 1
    39   19   20 1
    40   19   44 1
    41   19   45 1
    42   20   21 1
    43   20   46 1
    44   20   47 1
    45   21   22 1
    46   21   23 1
    47   21   27 1
    48   23   24 1
    49   23   25 1
    50   24   48 1
    51   24   49 1
    52   24   50 1
    53   25   26 1
    54   25   51 1
    55   25   52 1
    56   26   53 1
    57   27   54 1
    58   28   55 1
    59   28   56 1
    60   28   57 1
@<TRIPOS>MOLECULE
ZINC36370749
   56    59     0     0     0
SMALL
USER_CHARGES

@<TRIPOS>ATOM
      1 C1         -0.0187    1.5258    0.0104 C.3       1 <0>        -0.1312
      2 C2          0.0021   -0.0041    0.0020 C.3       1 <0>        -0.1072
      3 C3          0.6092   -0.5529   -1.2916 C.3       1 <0>        -0.1000
      4 C4          2.1180   -0.3242   -1.3214 C.3       1 <0>        -0.1416
      5 C5          2.7515   -1.0959   -0.1587 C.3       1 <0>        -0.0649
      6 H1          2.4809   -2.1495   -0.2272 H         1 <0>         0.0744
      7 C6          2.2230   -0.5136    1.1514 C.3       1 <0>        -0.0694
      8 H2          2.5051    0.5379    1.2036 H         1 <0>         0.0743
      9 C7          0.7364   -0.5699    1.2303 C.3       1 <0>        -0.0705
     10 H3          0.4078   -0.0365    2.1222 H         1 <0>         0.0737
     11 C8          0.2222   -2.0206    1.3053 C.3       1 <0>        -0.1168
     12 C9         -1.2698   -1.8807    0.9235 C.3       1 <0>        -0.1859
     13 C10        -1.4026   -0.5919    0.1363 C.2       1 <0>         0.3710
     14 O1         -2.4241   -0.1192   -0.3010 O.2       1 <0>        -0.4411
     15 C11         2.8601   -1.2490    2.3327 C.3       1 <0>        -0.1469
     16 C12         4.3802   -1.0857    2.2774 C.3       1 <0>         0.1100
     17 H4          4.8482   -2.0670    2.1998 H         1 <0>         0.0572
     18 C13         4.7599   -0.2422    1.0590 C.3       1 <0>        -0.0606
     19 H5          4.2947    0.7404    1.1382 H         1 <0>         0.0913
     20 C14         4.2732   -0.9498   -0.2247 C.3       1 <0>        -0.0357
     21 C15         4.6522   -0.1134   -1.4487 C.3       1 <0>         0.1232
     22 H6          4.1968    0.8737   -1.3695 H         1 <0>         0.0692
     23 C16         6.1740    0.0309   -1.5156 C.3       1 <0>        -0.1764
     24 C17         6.6768    0.7252   -0.2483 C.3       1 <0>         0.0900
     25 H7          7.7609    0.8276   -0.2960 H         1 <0>         0.0631
     26 C18         6.2807   -0.0833    1.0025 C.3       1 <0>        -0.1104
     27 O2          6.0802    2.0196   -0.1457 O.3       1 <0>        -0.3794
     28 C19         6.8312    3.0577   -0.7786 C.3       1 <0>         0.0282
     29 O3          4.1824   -0.7613   -2.6325 O.3       1 <0>        -0.5515
     30 C20         4.9142   -2.3347   -0.3346 C.3       1 <0>        -0.1446
     31 O4          4.8327   -0.4350    3.4664 O.3       1 <0>        -0.5651
     32 H8          1.0039    1.9031    0.0027 H         1 <0>         0.0658
     33 H9         -0.5459    1.8868   -0.8726 H         1 <0>         0.0618
     34 H10        -0.5289    1.8773    0.9072 H         1 <0>         0.0554
     35 H11         0.4070   -1.6220   -1.3575 H         1 <0>         0.0628
     36 H12         0.1531   -0.0492   -2.1439 H         1 <0>         0.0634
     37 H13         2.5245   -0.6863   -2.2657 H         1 <0>         0.1229
     38 H14         2.3291    0.7396   -1.2128 H         1 <0>         0.0588
     39 H15         0.7459   -2.6528    0.5882 H         1 <0>         0.0779
     40 H16         0.3261   -2.4146    2.3162 H         1 <0>         0.0759
     41 H17        -1.5779   -2.7263    0.3085 H         1 <0>         0.0971
     42 H18        -1.8819   -1.8319    1.8241 H         1 <0>         0.0970
     43 H19         2.4838   -0.8309    3.2664 H         1 <0>         0.0729
     44 H20         2.6065   -2.3078    2.2808 H         1 <0>         0.0689
     45 H21         6.6294   -0.9563   -1.5941 H         1 <0>         0.0828
     46 H22         6.4445    0.6262   -2.3877 H         1 <0>         0.0654
     47 H23         6.6284    0.4106    1.9098 H         1 <0>         0.0819
     48 H24         6.7459   -1.0657    0.9225 H         1 <0>         0.0712
     49 H25         6.9357    2.8349   -1.8404 H         1 <0>         0.0384
     50 H26         6.3120    4.0082   -0.6561 H         1 <0>         0.0852
     51 H27         7.8189    3.1216   -0.3219 H         1 <0>         0.0411
     52 H28         4.3880   -0.2857   -3.4491 H         1 <0>         0.3729
     53 H29         4.5572   -2.8297   -1.2377 H         1 <0>         0.0660
     54 H30         5.9982   -2.2306   -0.3816 H         1 <0>         0.0568
     55 H31         4.6439   -2.9304    0.5373 H         1 <0>         0.0543
     56 H32         4.6266   -0.9150    4.2802 H         1 <0>         0.3769
@<TRIPOS>BOND
     1    1    2 1
     2    1   32 1
     3    1   33 1
     4    1   34 1
     5    2    9 1
     6    2   13 1
     7    2    3 1
     8    3    4 1
     9    3   35 1
    10    3   36 1
    11    4    5 1
    12    4   37 1
    13    4   38 1
    14    5    6 1
    15    5   20 1
    16    5    7 1
    17    7    8 1
    18    7    9 1
    19    7   15 1
    20    9   10 1
    21    9   11 1
    22   11   12 1
    23   11   39 1
    24   11   40 1
    25   12   13 1
    26   12   41 1
    27   12   42 1
    28   13   14 2
    29   15   16 1
    30   15   43 1
    31   15   44 1
    32   16   17 1
    33   16   18 1
    34   16   31 1
    35   18   19 1
    36   18   26 1
    37   18   20 1
    38   20   21 1
    39   20   30 1
    40   21   22 1
    41   21   23 1
    42   21   29 1
    43   23   24 1
    44   23   45 1
    45   23   46 1
    46   24   25 1
    47   24   26 1
    48   24   27 1
    49   26   47 1
    50   26   48 1
    51   27   28 1
    52   28   49 1
    53   28   50 1
    54   28   51 1
    55   29   52 1
    56   30   53 1
    57   30   54 1
    58   30   55 1
    59   31   56 1
@<TRIPOS>MOLECULE
ZINC40176032
   31    32     0     0     0
SMALL
USER_CHARGES

@<TRIPOS>ATOM
      1 C1          1.0035   -0.3472   -0.9071 C.ar      1 <0>        -0.0655
      2 C2          2.1874    0.3637   -0.9244 C.ar      1 <0>        -0.0810
      3 C3          2.3756    1.4179   -0.0482 C.ar      1 <0>        -0.0835
      4 C4          1.3790    1.7628    0.8474 C.ar      1 <0>        -0.0841
      5 C5          0.1932    1.0551    0.8693 C.ar      1 <0>        -0.1151
      6 C6          0.0014   -0.0032   -0.0093 C.ar      1 <0>         0.1372
      7 N1         -1.1993   -0.7214    0.0101 N.pl3     1 <0>        -0.6274
      8 C7         -1.1829   -2.0647   -0.0990 C.2       1 <0>         0.5534
      9 S1          0.3093   -2.9037   -0.1186 S.2       1 <0>        -0.5826
     10 N2         -2.3412   -2.7474   -0.1927 N.pl3     1 <0>        -0.6842
     11 C8         -2.3233   -4.2074   -0.3113 C.3       1 <0>         0.1293
     12 H1         -1.4469   -4.4974   -0.8908 H         1 <0>         0.1630
     13 C9         -2.2020   -4.8157    1.1039 C.3       1 <0>        -0.5647
     14 S2         -3.9605   -5.2480    1.4620 S.o2      1 <0>         2.3586
     15 O1         -4.0043   -6.4419    2.2313 O.2       1 <0>        -0.9155
     16 O2         -4.6464   -4.0899    1.9177 O.2       1 <0>        -0.9205
     17 C10        -4.4704   -5.6194   -0.2727 C.3       1 <0>        -0.5789
     18 C11        -3.5701   -4.6488   -1.0630 C.3       1 <0>        -0.0237
     19 H2         -4.1536   -3.7643   -1.3185 H         1 <0>         0.1291
     20 Cl1        -3.0637   -5.4575   -2.5928 Cl        1 <0>        -0.1226
     21 Br1         3.9983    2.3885   -0.0744 Br        1 <0>        -0.0447
     22 H3          0.8553   -1.1672   -1.5943 H         1 <0>         0.1515
     23 H4          2.9671    0.0963   -1.6222 H         1 <0>         0.1399
     24 H5          1.5286    2.5861    1.5302 H         1 <0>         0.1394
     25 H6         -0.5841    1.3244    1.5691 H         1 <0>         0.1349
     26 H7         -2.0435   -0.2526    0.1021 H         1 <0>         0.4116
     27 H8         -3.1866   -2.2720   -0.1816 H         1 <0>         0.4059
     28 H9         -1.5736   -5.7063    1.0951 H         1 <0>         0.1657
     29 H10        -1.8266   -4.0804    1.8155 H         1 <0>         0.1541
     30 H11        -4.2537   -6.6559   -0.5314 H         1 <0>         0.1618
     31 H12        -5.5247   -5.3906   -0.4287 H         1 <0>         0.1588
@<TRIPOS>BOND
     1    1    6 ar
     2    1    2 ar
     3    1   22 1
     4    2    3 ar
     5    2   23 1
     6    3    4 ar
     7    3   21 1
     8    4    5 ar
     9    4   24 1
    10    5    6 ar
    11    5   25 1
    12    6    7 1
    13    7    8 1
    14    7   26 1
    15    8    9 2
    16    8   10 1
    17   10   11 1
    18   10   27 1
    19   11   12 1
    20   11   18 1
    21   11   13 1
    22   13   14 1
    23   13   28 1
    24   13   29 1
    25   14   15 2
    26   14   16 2
    27   14   17 1
    28   17   18 1
    29   17   30 1
    30   17   31 1
    31   18   19 1
    32   18   20 1
@<TRIPOS>MOLECULE
ZINC48727108
   37    38     0     0     0
SMALL
USER_CHARGES

@<TRIPOS>ATOM
      1 C1         -1.2013    1.2165    0.1766 C.3       1 <0>        -0.1208
      2 C2         -0.5526   -0.1404    0.0819 C.ar      1 <0>        -0.0947
      3 C3         -0.5462   -0.8212   -1.1198 C.ar      1 <0>        -0.0736
      4 C4          0.0496   -2.0667   -1.2077 C.ar      1 <0>        -0.0954
      5 C5          0.6408   -2.6343   -0.0926 C.ar      1 <0>        -0.0775
      6 C6          0.6377   -1.9586    1.1115 C.ar      1 <0>        -0.1084
      7 C7          0.0447   -0.7052    1.2016 C.ar      1 <0>         0.1475
      8 N1          0.0446   -0.0165    2.4176 N.am      1 <0>        -0.6373
      9 C8         -0.0628   -0.6958    3.5767 C.2       1 <0>         0.5153
     10 O1         -0.0741   -1.9095    3.5701 O.2       1 <0>        -0.4861
     11 C9         -0.1678    0.0449    4.8693 C.2       1 <0>         0.5115
     12 O2         -0.2711    1.2541    4.8691 O.2       1 <0>        -0.5149
     13 N2         -0.1477   -0.6295    6.0361 N.am      1 <0>        -0.5769
     14 C10        -0.1519    0.0903    7.3169 C.3       1 <0>         0.1094
     15 C11         1.0301   -0.3977    8.1606 C.3       1 <0>        -0.1280
     16 C12         0.9612   -1.9206    8.2951 C.3       1 <0>         0.1014
     17 C13         1.0598   -2.5619    6.9090 C.3       1 <0>        -0.1645
     18 C14        -0.1275   -2.0985    6.0513 C.3       1 <0>         0.0450
     19 O3          2.0443   -2.3761    9.1085 O.3       1 <0>        -0.5665
     20 Br1         0.0555   -2.9957   -2.8548 Br        1 <0>        -0.0451
     21 H1         -0.4658    1.9877   -0.0523 H         1 <0>         0.0790
     22 H2         -2.0242    1.2763   -0.5356 H         1 <0>         0.0782
     23 H3         -1.5832    1.3669    1.1864 H         1 <0>         0.0693
     24 H4         -1.0072   -0.3809   -1.9917 H         1 <0>         0.1399
     25 H5          1.1049   -3.6069   -0.1641 H         1 <0>         0.1392
     26 H6          1.0993   -2.4020    1.9814 H         1 <0>         0.1498
     27 H7          0.1217    0.9503    2.4274 H         1 <0>         0.4262
     28 H8         -0.0537    1.1605    7.1350 H         1 <0>         0.1036
     29 H9         -1.0845   -0.1087    7.8449 H         1 <0>         0.0796
     30 H10         1.9644   -0.1173    7.6743 H         1 <0>         0.0760
     31 H11         0.9834    0.0574    9.1499 H         1 <0>         0.0884
     32 H12         0.0158   -2.2018    8.7590 H         1 <0>         0.0584
     33 H13         1.9939   -2.2611    6.4346 H         1 <0>         0.0748
     34 H14         1.0342   -3.6471    7.0076 H         1 <0>         0.0813
     35 H15        -1.0581   -2.4724    6.4781 H         1 <0>         0.0727
     36 H16        -0.0133   -2.4729    5.0340 H         1 <0>         0.1629
     37 H17         2.0637   -3.3344    9.2371 H         1 <0>         0.3806
@<TRIPOS>BOND
     1    1    2 1
     2    1   21 1
     3    1   22 1
     4    1   23 1
     5    2    7 ar
     6    2    3 ar
     7    3    4 ar
     8    3   24 1
     9    4    5 ar
    10    4   20 1
    11    5    6 ar
    12    5   25 1
    13    6    7 ar
    14    6   26 1
    15    7    8 1
    16    8    9 am
    17    8   27 1
    18    9   10 2
    19    9   11 1
    20   11   12 2
    21   11   13 am
    22   13   18 1
    23   13   14 1
    24   14   15 1
    25   14   28 1
    26   14   29 1
    27   15   16 1
    28   15   30 1
    29   15   31 1
    30   16   17 1
    31   16   19 1
    32   16   32 1
    33   17   18 1
    34   17   33 1
    35   17   34 1
    36   18   35 1
    37   18   36 1
    38   19   37 1
@<TRIPOS>MOLECULE
ZINC45552111
   44    47     0     0     0
SMALL
USER_CHARGES

@<TRIPOS>ATOM
      1 C1          0.5512    0.9210    0.6868 C.ar      1 <0>        -0.1556
      2 C2          1.8210    1.4612    0.7758 C.ar      1 <0>        -0.0795
      3 C3          2.9269    0.6454    0.6531 C.ar      1 <0>        -0.1525
      4 C4          2.7692   -0.7207    0.4412 C.ar      1 <0>         0.1396
      5 C5          1.4974   -1.2589    0.3561 C.ar      1 <0>        -0.1807
      6 C6          0.3909   -0.4346    0.4773 C.ar      1 <0>        -0.0652
      7 C7          1.2820   -2.7352    0.1385 C.3       1 <0>         0.2082
      8 H1          1.0107   -3.2053    1.0837 H         1 <0>         0.1078
      9 C8          2.5679   -3.3707   -0.3959 C.3       1 <0>        -0.1678
     10 C9          3.7370   -2.9025    0.4800 C.3       1 <0>         0.0658
     11 O1          3.8820   -1.4905    0.3203 O.3       1 <0>        -0.3150
     12 N1          0.2021   -2.9325   -0.8317 N.am      1 <0>        -0.7353
     13 C10        -1.0583   -3.1431   -0.4035 C.2       1 <0>         0.7049
     14 O2         -1.3131   -3.0938    0.7844 O.2       1 <0>        -0.5799
     15 N2         -2.0364   -3.4085   -1.2920 N.am      1 <0>        -0.7383
     16 C11        -3.4240   -3.5319   -0.8388 C.3       1 <0>         0.1999
     17 H2         -3.4216   -3.8427    0.2060 H         1 <0>         0.1086
     18 C12        -4.1094   -4.6073   -1.6630 C.3       1 <0>        -0.1301
     19 C13        -5.5509   -4.7815   -1.1623 C.3       1 <0>        -0.1015
     20 S1         -6.4817   -3.3136   -1.6930 S.3       1 <0>        -0.1212
     21 C14        -5.4016   -1.9784   -1.2848 C.ar      1 <0>        -0.0664
     22 C15        -4.0813   -2.1871   -0.9368 C.ar      1 <0>        -0.1039
     23 C16        -3.2856   -1.0821   -0.6445 C.ar      1 <0>        -0.0903
     24 C17        -3.7990    0.1960   -0.6938 C.ar      1 <0>        -0.1225
     25 C18        -5.1236    0.3979   -1.0361 C.ar      1 <0>        -0.0982
     26 C19        -5.9188   -0.6836   -1.3265 C.ar      1 <0>        -0.1020
     27 H3         -0.3151    1.5584    0.7856 H         1 <0>         0.1231
     28 H4          1.9470    2.5211    0.9408 H         1 <0>         0.1297
     29 H5          3.9182    1.0686    0.7214 H         1 <0>         0.1316
     30 H6         -0.6019   -0.8540    0.4076 H         1 <0>         0.1242
     31 H7          2.4872   -4.4568   -0.3508 H         1 <0>         0.0929
     32 H8          2.7322   -3.0565   -1.4266 H         1 <0>         0.0842
     33 H9          3.5291   -3.1344    1.5245 H         1 <0>         0.0697
     34 H10         4.6534   -3.4032    0.1676 H         1 <0>         0.1151
     35 H11         0.3943   -2.9115   -1.7822 H         1 <0>         0.3993
     36 H12        -1.8215   -3.5177   -2.2316 H         1 <0>         0.3999
     37 H13        -4.1211   -4.3106   -2.7117 H         1 <0>         0.0859
     38 H14        -3.5699   -5.5483   -1.5552 H         1 <0>         0.0932
     39 H15        -5.9902   -5.6782   -1.5995 H         1 <0>         0.1205
     40 H16        -5.5603   -4.8543   -0.0748 H         1 <0>         0.0968
     41 H17        -2.2501   -1.2290   -0.3753 H         1 <0>         0.1218
     42 H18        -3.1662    1.0407   -0.4646 H         1 <0>         0.1242
     43 H19        -5.5302    1.3978   -1.0707 H         1 <0>         0.1301
     44 H20        -6.9531   -0.5285   -1.5960 H         1 <0>         0.1288
@<TRIPOS>BOND
     1    1    6 ar
     2    1    2 ar
     3    1   27 1
     4    2    3 ar
     5    2   28 1
     6    3    4 ar
     7    3   29 1
     8    4   11 1
     9    4    5 ar
    10    5    6 ar
    11    5    7 1
    12    6   30 1
    13    7    8 1
    14    7    9 1
    15    7   12 1
    16    9   10 1
    17    9   31 1
    18    9   32 1
    19   10   11 1
    20   10   33 1
    21   10   34 1
    22   12   13 am
    23   12   35 1
    24   13   14 2
    25   13   15 am
    26   15   16 1
    27   15   36 1
    28   16   17 1
    29   16   22 1
    30   16   18 1
    31   18   19 1
    32   18   37 1
    33   18   38 1
    34   19   20 1
    35   19   39 1
    36   19   40 1
    37   20   21 1
    38   21   26 ar
    39   21   22 ar
    40   22   23 ar
    41   23   24 ar
    42   23   41 1
    43   24   25 ar
    44   24   42 1
    45   25   26 ar
    46   25   43 1
    47   26   44 1
@<TRIPOS>MOLECULE
ZINC12408736
   36    38     0     0     0
SMALL
USER_CHARGES
2-acetamido-N-[(3R)-1,1-dioxo-2,3-dihydrothiophen-3-yl]-1,3-benzothiazole-6-carboxamide
@<TRIPOS>ATOM
      1 C1         -6.6995    5.0425    0.0964 C.3       1 <0>        -0.1643
      2 C2         -5.2525    4.6218    0.0792 C.2       1 <0>         0.5058
      3 O1         -4.3771    5.4610    0.0742 O.2       1 <0>        -0.4681
      4 N1         -4.9314    3.3129    0.0694 N.am      1 <0>        -0.6178
      5 C3         -3.6027    2.9266    0.0537 C.2       1 <0>         0.3851
      6 N2         -2.5253    3.6794    0.0465 N.2       1 <0>        -0.5171
      7 C4         -1.2805    3.1648    0.0314 C.ar      1 <0>         0.1420
      8 C5         -0.0479    3.8643    0.0229 C.ar      1 <0>        -0.0736
      9 C6          1.1334    3.1996    0.0085 C.ar      1 <0>        -0.0711
     10 C7          1.1849    1.7985    0.0004 C.ar      1 <0>        -0.1353
     11 C8         -0.0126    1.0758    0.0080 C.ar      1 <0>         0.0157
     12 C9         -1.2024    1.7505    0.0172 C.ar      1 <0>        -0.1703
     13 S1         -2.9149    1.2770    0.0384 S.3       1 <0>         0.0289
     14 C10         2.4824    1.0972   -0.0153 C.2       1 <0>         0.5700
     15 O2          2.5165   -0.1183   -0.0218 O.2       1 <0>        -0.5234
     16 N3          3.6302    1.8036   -0.0225 N.am      1 <0>        -0.7151
     17 C11         4.9189    1.1071   -0.0381 C.3       1 <0>         0.1542
     18 H1          4.8251    0.1914   -0.6218 H         1 <0>         0.1392
     19 C12         5.9878    2.0232   -0.6916 C.3       1 <0>        -0.5885
     20 S2          7.4334    1.5547    0.3484 S.o2      1 <0>         2.4412
     21 O3          8.1200    2.7074    0.8167 O.2       1 <0>        -0.9254
     22 O4          8.1320    0.4510   -0.2111 O.2       1 <0>        -0.9196
     23 C13         6.5470    0.9092    1.7553 C.2       1 <0>        -0.6383
     24 C14         5.3089    0.7607    1.3628 C.2       1 <0>        -0.0745
     25 H2         -7.3353    4.1572    0.0987 H         1 <0>         0.0839
     26 H3         -6.8956    5.6330    0.9914 H         1 <0>         0.1068
     27 H4         -6.9142    5.6417   -0.7884 H         1 <0>         0.1068
     28 H5         -5.6316    2.6417    0.0735 H         1 <0>         0.4322
     29 H6         -0.0498    4.9443    0.0284 H         1 <0>         0.1429
     30 H7          2.0555    3.7618    0.0027 H         1 <0>         0.1370
     31 H8          0.0021   -0.0041    0.0020 H         1 <0>         0.1494
     32 H9          3.6030    2.7733   -0.0173 H         1 <0>         0.4093
     33 H10         6.1492    1.7662   -1.7384 H         1 <0>         0.1608
     34 H11         5.7362    3.0774   -0.5757 H         1 <0>         0.1552
     35 H12         6.9507    0.6867    2.7320 H         1 <0>         0.1914
     36 H13         4.5663    0.3868    2.0521 H         1 <0>         0.1446
@<TRIPOS>BOND
     1    1    2 1
     2    1   25 1
     3    1   26 1
     4    1   27 1
     5    2    3 2
     6    2    4 am
     7    4    5 1
     8    4   28 1
     9    5   13 1
    10    5    6 2
    11    6    7 1
    12    7   12 ar
    13    7    8 ar
    14    8    9 ar
    15    8   29 1
    16    9   10 ar
    17    9   30 1
    18   10   11 ar
    19   10   14 1
    20   11   12 ar
    21   11   31 1
    22   12   13 1
    23   14   15 2
    24   14   16 am
    25   16   17 1
    26   16   32 1
    27   17   18 1
    28   17   24 1
    29   17   19 1
    30   19   20 1
    31   19   33 1
    32   19   34 1
    33   20   21 2
    34   20   22 2
    35   20   23 1
    36   23   24 2
    37   23   35 1
    38   24   36 1
@<TRIPOS>MOLECULE
ZINC37773610
   35    37     0     0     0
SMALL
USER_CHARGES

@<TRIPOS>ATOM
      1 C1         -0.0184    1.5028    0.0103 C.3       1 <0>        -0.1002
      2 C2          0.0021   -0.0041    0.0020 C.2       1 <0>         0.1188
      3 C3          0.0079   -0.7958   -1.0953 C.2       1 <0>        -0.2671
      4 C4          0.0284   -2.1267   -0.6656 C.2       1 <0>         0.0986
      5 N1          0.0347   -2.1338    0.6427 N.2       1 <0>        -0.2908
      6 N2          0.0237   -0.8054    1.0876 N.pl3     1 <0>        -0.4718
      7 H1          0.0286   -0.5133    2.0125 H         1 <0>         0.4412
      8 C5          0.0404   -3.3426   -1.5559 C.3       1 <0>        -0.0786
      9 C6         -0.0058   -0.3266   -2.5273 C.3       1 <0>         0.2035
     10 N3          1.3708   -0.1549   -2.9981 N.pl3     1 <0>        -0.7285
     11 C7          1.6138    0.2768   -4.3058 C.ar      1 <0>         0.2160
     12 C8          0.5520    0.5484   -5.1564 C.ar      1 <0>        -0.1646
     13 C9          0.7968    0.9770   -6.4528 C.ar      1 <0>         0.1720
     14 C10         2.1031    1.1333   -6.8968 C.ar      1 <0>        -0.1569
     15 C11         3.1603    0.8626   -6.0490 C.ar      1 <0>        -0.0771
     16 C12         2.9206    0.4402   -4.7540 C.ar      1 <0>         0.0281
     17 F1          3.9559    0.1812   -3.9256 F         1 <0>        -0.1347
     18 N4         -0.2752    1.2519   -7.3152 N.pl3     1 <0>        -0.3283
     19 C13        -0.2094    1.6688   -8.5981 C.2       1 <0>         0.2312
     20 N5         -1.4374    1.8020   -9.0265 N.2       1 <0>        -0.3282
     21 N6         -2.2751    1.4977   -8.1019 N.2       1 <0>        -0.0313
     22 N7         -1.6482    1.1466   -7.0311 N.2       1 <0>        -0.0744
     23 H2          1.0042    1.8801    0.0026 H         1 <0>         0.0853
     24 H3         -0.5455    1.8639   -0.8728 H         1 <0>         0.0895
     25 H4         -0.5286    1.8543    0.9071 H         1 <0>         0.0759
     26 H5          1.0708   -3.6217   -1.7759 H         1 <0>         0.0796
     27 H6         -0.4595   -4.1685   -1.0497 H         1 <0>         0.0765
     28 H7         -0.4815   -3.1172   -2.4858 H         1 <0>         0.0792
     29 H8         -0.5122   -1.0664   -3.1473 H         1 <0>         0.0739
     30 H9         -0.5335    0.6249   -2.5928 H         1 <0>         0.0708
     31 H10         2.1138   -0.3407   -2.4028 H         1 <0>         0.4083
     32 H11        -0.4636    0.4260   -4.8098 H         1 <0>         0.1500
     33 H12         2.2932    1.4667   -7.9063 H         1 <0>         0.1418
     34 H13         4.1753    0.9848   -6.3970 H         1 <0>         0.1512
     35 H14         0.6905    1.8574   -9.1648 H         1 <0>         0.2414
@<TRIPOS>BOND
     1    1    2 1
     2    1   23 1
     3    1   24 1
     4    1   25 1
     5    2    6 1
     6    2    3 2
     7    3    4 1
     8    3    9 1
     9    4    5 2
    10    4    8 1
    11    5    6 1
    12    6    7 1
    13    8   26 1
    14    8   27 1
    15    8   28 1
    16    9   10 1
    17    9   29 1
    18    9   30 1
    19   10   11 1
    20   10   31 1
    21   11   16 ar
    22   11   12 ar
    23   12   13 ar
    24   12   32 1
    25   13   14 ar
    26   13   18 1
    27   14   15 ar
    28   14   33 1
    29   15   16 ar
    30   15   34 1
    31   16   17 1
    32   18   22 1
    33   18   19 1
    34   19   20 2
    35   19   35 1
    36   20   21 1
    37   21   22 2
@<TRIPOS>MOLECULE
ZINC49181922
   41    43     0     0     0
SMALL
USER_CHARGES

@<TRIPOS>ATOM
      1 C1         -0.7125    1.1550   -1.1976 C.3       1 <0>        -0.1389
      2 C2         -0.3351   -0.2838   -0.8395 C.3       1 <0>         0.1245
      3 C3         -1.5950   -1.1587   -0.8200 C.3       1 <0>         0.0818
      4 H1         -2.1086   -1.0848   -1.7785 H         1 <0>         0.0916
      5 C4         -1.1690   -2.6080   -0.5731 C.3       1 <0>         0.1332
      6 H2         -2.0488   -3.2116   -0.3503 H         1 <0>         0.0768
      7 C5         -0.2129   -2.6652    0.5919 C.ar      1 <0>        -0.2255
      8 C6          0.4488   -1.5302    1.0408 C.ar      1 <0>         0.2202
      9 C7          1.3312   -1.6115    2.1159 C.ar      1 <0>         0.0344
     10 C8          1.5561   -2.8246    2.7522 C.ar      1 <0>         0.1820
     11 C9          0.8830   -3.9742    2.3007 C.ar      1 <0>        -0.2044
     12 C10        -0.0025   -3.8834    1.2144 C.ar      1 <0>         0.2008
     13 O1         -0.6530   -4.9913    0.7749 O.3       1 <0>        -0.3306
     14 C11        -1.8834   -5.3210    1.4225 C.3       1 <0>         0.0296
     15 C12         1.1077   -5.2151    2.9509 C.2       1 <0>         0.0113
     16 C13         1.9738   -5.2514    3.9974 C.2       1 <0>        -0.2518
     17 C14         2.6226   -4.0713    4.4092 C.2       1 <0>         0.5018
     18 O2          3.3954   -4.1171    5.3497 O.2       1 <0>        -0.4571
     19 O3          2.4123   -2.8990    3.7941 O.3       1 <0>        -0.2482
     20 O4          1.9782   -0.4929    2.5454 O.3       1 <0>        -0.3056
     21 C15         1.3297    0.2847    3.5538 C.3       1 <0>         0.0317
     22 O5          0.2565   -0.3167    0.4596 O.3       1 <0>        -0.2724
     23 O6         -0.5247   -3.1197   -1.7415 O.3       1 <0>        -0.5410
     24 O7         -2.4655   -0.7265    0.2276 O.3       1 <0>        -0.5417
     25 C16         0.6554   -0.8284   -1.8706 C.3       1 <0>        -0.1784
     26 H3          0.1823    1.7775   -1.1920 H         1 <0>         0.0730
     27 H4         -1.1636    1.1762   -2.1896 H         1 <0>         0.0819
     28 H5         -1.4250    1.5365   -0.4662 H         1 <0>         0.0755
     29 H6         -1.6882   -5.5797    2.4632 H         1 <0>         0.0565
     30 H7         -2.5566   -4.4647    1.3811 H         1 <0>         0.0533
     31 H8         -2.3438   -6.1700    0.9173 H         1 <0>         0.1072
     32 H9          0.6015   -6.1105    2.6218 H         1 <0>         0.1545
     33 H10         2.1636   -6.1819    4.5117 H         1 <0>         0.1674
     34 H11         0.3645    0.6290    3.1824 H         1 <0>         0.0516
     35 H12         1.1796   -0.3267    4.4436 H         1 <0>         0.0461
     36 H13         1.9504    1.1449    3.8044 H         1 <0>         0.1001
     37 H14        -0.3017   -4.0591   -1.6881 H         1 <0>         0.3867
     38 H15        -3.2830   -1.2384    0.2960 H         1 <0>         0.3826
     39 H16         1.5528   -0.2097   -1.8746 H         1 <0>         0.0697
     40 H17         0.9219   -1.8533   -1.6124 H         1 <0>         0.0905
     41 H18         0.1972   -0.8103   -2.8595 H         1 <0>         0.0792
@<TRIPOS>BOND
     1    1    2 1
     2    1   26 1
     3    1   27 1
     4    1   28 1
     5    2   22 1
     6    2    3 1
     7    2   25 1
     8    3    4 1
     9    3    5 1
    10    3   24 1
    11    5    6 1
    12    5    7 1
    13    5   23 1
    14    7   12 ar
    15    7    8 ar
    16    8    9 ar
    17    8   22 1
    18    9   10 ar
    19    9   20 1
    20   10   19 1
    21   10   11 ar
    22   11   12 ar
    23   11   15 1
    24   12   13 1
    25   13   14 1
    26   14   29 1
    27   14   30 1
    28   14   31 1
    29   15   16 2
    30   15   32 1
    31   16   17 1
    32   16   33 1
    33   17   18 2
    34   17   19 1
    35   20   21 1
    36   21   34 1
    37   21   35 1
    38   21   36 1
    39   23   37 1
    40   24   38 1
    41   25   39 1
    42   25   40 1
    43   25   41 1
@<TRIPOS>MOLECULE
ZINC60605061
   45    47     0     0     0
SMALL
USER_CHARGES

@<TRIPOS>ATOM
      1 C1          0.3050    1.0675    0.0429 C.ar      1 <0>        -0.0892
      2 C2         -0.8779    1.7928    0.0836 C.ar      1 <0>        -0.1572
      3 C3         -2.0791    1.0982    0.0975 C.ar      1 <0>         0.2540
      4 C4         -2.0544   -0.2964    0.0702 C.ar      1 <0>         0.2174
      5 N1         -0.9039   -0.9476    0.0321 N.ar      1 <0>        -0.4054
      6 C5          0.2526   -0.3117    0.0177 C.ar      1 <0>        -0.0172
      7 N2         -3.2536   -1.0103    0.0837 N.am      1 <0>        -0.6320
      8 C6         -3.2435   -2.3480   -0.0804 C.2       1 <0>         0.5248
      9 O1         -2.1886   -2.9424   -0.1503 O.2       1 <0>        -0.5378
     10 C7         -4.5429   -3.1052   -0.1770 C.3       1 <0>        -0.1008
     11 C8         -5.3522   -2.8945    1.1047 C.3       1 <0>        -0.1319
     12 C9         -6.6870   -3.6372    0.9888 C.3       1 <0>         0.1332
     13 N3         -6.4182   -5.0460    0.6696 N.am      1 <0>        -0.6253
     14 C10        -5.5739   -5.3585   -0.4915 C.3       1 <0>         0.0346
     15 C11        -4.2516   -4.5965   -0.3591 C.3       1 <0>        -0.1144
     16 C12        -6.9359   -6.0327    1.4277 C.2       1 <0>         0.7265
     17 O2         -7.7716   -5.7756    2.2725 O.2       1 <0>        -0.5824
     18 N4         -6.5271   -7.3046    1.2494 N.am      1 <0>        -0.6369
     19 C13        -5.6260   -7.7740    0.1867 C.3       1 <0>         0.0907
     20 C14        -5.4637   -9.2984    0.3638 C.3       1 <0>        -0.1366
     21 C15        -6.7290   -9.6911    1.1713 C.3       1 <0>        -0.1347
     22 C16        -6.9045   -8.4544    2.0913 C.3       1 <0>         0.1224
     23 O3         -3.2624    1.7668    0.1376 O.3       1 <0>        -0.6392
     24 H1          1.2569    1.5773    0.0266 H         1 <0>         0.1553
     25 H2         -0.8637    2.8725    0.1043 H         1 <0>         0.1497
     26 H3          1.1711   -0.8786   -0.0181 H         1 <0>         0.1802
     27 H4         -4.0944   -0.5436    0.2112 H         1 <0>         0.4430
     28 H5         -5.1135   -2.7397   -1.0307 H         1 <0>         0.1151
     29 H6         -4.7928   -3.2823    1.9561 H         1 <0>         0.0776
     30 H7         -5.5393   -1.8300    1.2461 H         1 <0>         0.0870
     31 H8         -7.2242   -3.5731    1.9351 H         1 <0>         0.1015
     32 H9         -7.2860   -3.1906    0.1952 H         1 <0>         0.0732
     33 H10        -5.3767   -6.4301   -0.5221 H         1 <0>         0.1476
     34 H11        -6.0821   -5.0522   -1.4059 H         1 <0>         0.0691
     35 H12        -3.6552   -4.7434   -1.2596 H         1 <0>         0.0863
     36 H13        -3.7026   -4.9683    0.5061 H         1 <0>         0.0767
     37 H14        -6.0601   -7.5583   -0.7896 H         1 <0>         0.0808
     38 H15        -4.6564   -7.2847    0.2799 H         1 <0>         0.0796
     39 H16        -5.4526   -9.8000   -0.6038 H         1 <0>         0.0858
     40 H17        -4.5597   -9.5270    0.9283 H         1 <0>         0.0799
     41 H18        -7.5887   -9.8179    0.5132 H         1 <0>         0.0781
     42 H19        -6.5532  -10.5917    1.7596 H         1 <0>         0.0877
     43 H20        -6.2440   -8.5248    2.9555 H         1 <0>         0.0679
     44 H21        -7.9424   -8.3652    2.4122 H         1 <0>         0.0814
     45 H22        -0.9103   -1.9174    0.0140 H         1 <0>         0.4338
@<TRIPOS>BOND
     1    1    6 ar
     2    1   24 1
     3    1    2 ar
     4    2    3 ar
     5    2   25 1
     6    3   23 1
     7    3    4 ar
     8    4    7 1
     9    4    5 ar
    10    5   45 1
    11    5    6 ar
    12    6   26 1
    13    7    8 am
    14    7   27 1
    15    8    9 2
    16    8   10 1
    17   10   15 1
    18   10   11 1
    19   10   28 1
    20   11   12 1
    21   11   29 1
    22   11   30 1
    23   12   13 1
    24   12   31 1
    25   12   32 1
    26   13   14 1
    27   13   16 am
    28   14   15 1
    29   14   33 1
    30   14   34 1
    31   15   35 1
    32   15   36 1
    33   16   17 2
    34   16   18 am
    35   18   22 1
    36   18   19 1
    37   19   20 1
    38   19   37 1
    39   19   38 1
    40   20   21 1
    41   20   39 1
    42   20   40 1
    43   21   22 1
    44   21   41 1
    45   21   42 1
    46   22   43 1
    47   22   44 1
@<TRIPOS>MOLECULE
ZINC09088947
   43    46     0     0     0
SMALL
USER_CHARGES

@<TRIPOS>ATOM
      1 C1         -0.0716    1.5117    0.1971 C.3       1 <0>        -0.1522
      2 C2          0.0021   -0.0041    0.0020 C.3       1 <0>        -0.0923
      3 C3         -1.3810   -0.5926    0.1124 C.2       1 <0>         0.1380
      4 C4         -2.2705   -0.9538   -0.8157 C.2       1 <0>        -0.2404
      5 C5         -3.4706   -1.2768   -0.1297 C.2       1 <0>         0.2590
      6 N1         -3.2397   -1.2496    1.1542 N.2       1 <0>        -0.2588
      7 N2         -1.9124   -0.8697    1.3365 N.pl3     1 <0>        -0.4706
      8 H1         -1.4290   -0.8108    2.1778 H         1 <0>         0.4505
      9 O1         -4.6538   -1.5306   -0.7447 O.3       1 <0>        -0.2111
     10 C6         -4.6379   -1.6728   -2.0778 C.2       1 <0>         0.4372
     11 C7         -3.5503   -1.4726   -2.8413 C.2       1 <0>        -0.2719
     12 C8         -2.1866   -1.0363   -2.3264 C.3       1 <0>         0.1386
     13 C9         -1.2042   -2.1150   -2.7432 C.3       1 <0>        -0.0975
     14 C10         0.2551   -1.6907   -2.6855 C.3       1 <0>        -0.1392
     15 C11         0.4632   -0.4093   -3.4837 C.3       1 <0>         0.2678
     16 C12        -0.4459    0.7195   -3.0351 C.3       1 <0>        -0.1286
     17 C13        -1.9027    0.3332   -2.9115 C.3       1 <0>        -0.0957
     18 O2          1.8351    0.0116   -3.3272 O.3       1 <0>        -0.3752
     19 C14         2.5186   -0.5433   -4.4790 C.3       1 <0>         0.0144
     20 C15         1.4443   -0.4040   -5.5844 C.3       1 <0>         0.0191
     21 O3          0.2234   -0.6859   -4.8733 O.3       1 <0>        -0.3711
     22 C16        -3.7255   -1.6853   -4.2545 C.1       1 <0>         0.2682
     23 N3         -3.8637   -1.8531   -5.3695 N.1       1 <0>        -0.4422
     24 N4         -5.8089   -2.0385   -2.6975 N.pl3     1 <0>        -0.8348
     25 H2          0.9078    1.9505    0.0065 H         1 <0>         0.0719
     26 H3         -0.7995    1.9323   -0.4966 H         1 <0>         0.0652
     27 H4         -0.3755    1.7319    1.2204 H         1 <0>         0.0577
     28 H5          0.4129   -0.2240   -0.9833 H         1 <0>         0.1117
     29 H6          0.6440   -0.4383    0.7685 H         1 <0>         0.0846
     30 H7         -1.3356   -2.9758   -2.0630 H         1 <0>         0.0659
     31 H8         -1.4190   -2.4941   -3.7473 H         1 <0>         0.0745
     32 H9          0.6306   -1.6381   -1.6866 H         1 <0>         0.0929
     33 H10         0.8441   -2.4857   -3.1967 H         1 <0>         0.0660
     34 H11        -0.0765    1.2019   -2.1356 H         1 <0>         0.0934
     35 H12        -0.3808    1.5122   -3.8189 H         1 <0>         0.0684
     36 H13        -2.3914    0.4467   -3.8901 H         1 <0>         0.0709
     37 H14        -2.3982    1.0816   -2.2592 H         1 <0>         0.0675
     38 H15         3.4065    0.0366   -4.7241 H         1 <0>         0.1082
     39 H16         2.7774   -1.5870   -4.3101 H         1 <0>         0.0759
     40 H17         1.4309    0.6082   -5.9894 H         1 <0>         0.0759
     41 H18         1.6090   -1.1366   -6.3773 H         1 <0>         0.1007
     42 H19        -6.6108   -2.1847   -2.1716 H         1 <0>         0.4115
     43 H20        -5.8336   -2.1504   -3.6607 H         1 <0>         0.4259
@<TRIPOS>BOND
     1    1    2 1
     2    1   25 1
     3    1   26 1
     4    1   27 1
     5    2    3 1
     6    2   28 1
     7    2   29 1
     8    3    7 1
     9    3    4 2
    10    4   12 1
    11    4    5 1
    12    5    6 2
    13    5    9 1
    14    6    7 1
    15    7    8 1
    16    9   10 1
    17   10   11 2
    18   10   24 1
    19   11   12 1
    20   11   22 1
    21   12   17 1
    22   12   13 1
    23   13   14 1
    24   13   30 1
    25   13   31 1
    26   14   15 1
    27   14   32 1
    28   14   33 1
    29   15   21 1
    30   15   16 1
    31   15   18 1
    32   16   17 1
    33   16   34 1
    34   16   35 1
    35   17   36 1
    36   17   37 1
    37   18   19 1
    38   19   20 1
    39   19   38 1
    40   19   39 1
    41   20   21 1
    42   20   40 1
    43   20   41 1
    44   22   23 3
    45   24   42 1
    46   24   43 1
@<TRIPOS>MOLECULE
ZINC05339877
   38    39     0     0     0
SMALL
USER_CHARGES
N-[5-(1,1-dioxothiazolidin-2-yl)-2-methyl-phenyl]-N'-methyl-oxamide
@<TRIPOS>ATOM
      1 C1          2.4377    3.9512   -0.0081 C.3       1 <0>        -0.1154
      2 C2          1.1478    3.1720   -0.0047 C.ar      1 <0>        -0.1287
      3 C3         -0.0618    3.8398    0.0022 C.ar      1 <0>        -0.0592
      4 C4         -1.2465    3.1293    0.0057 C.ar      1 <0>        -0.1748
      5 C5         -1.2254    1.7396   -0.0034 C.ar      1 <0>         0.2271
      6 C6         -0.0125    1.0657   -0.0045 C.ar      1 <0>        -0.1510
      7 C7          1.1762    1.7826   -0.0080 C.ar      1 <0>         0.1671
      8 N1          2.3998    1.1081   -0.0145 N.am      1 <0>        -0.6396
      9 C8          2.5297   -0.0585    0.6479 C.2       1 <0>         0.5081
     10 O1          1.5638   -0.5644    1.1811 O.2       1 <0>        -0.4973
     11 C9          3.8621   -0.7287    0.7258 C.2       1 <0>         0.5087
     12 O2          4.8279   -0.2228    0.1926 O.2       1 <0>        -0.5130
     13 N2          3.9920   -1.8952    1.3881 N.am      1 <0>        -0.7012
     14 C10         5.2990   -2.5526    1.4645 C.3       1 <0>         0.0833
     15 N3         -2.4237    1.0221   -0.0061 N.pl3     1 <0>        -0.9289
     16 C11        -2.6393   -0.3452   -0.5130 C.3       1 <0>         0.0618
     17 C12        -3.7788   -1.0400    0.2608 C.3       1 <0>        -0.1297
     18 C13        -4.9199    0.0191    0.3315 C.3       1 <0>        -0.5879
     19 S1         -3.9135    1.5420    0.5597 S.o2      1 <0>         2.5541
     20 O3         -3.7206    1.8156    1.9407 O.2       1 <0>        -0.9403
     21 O4         -4.3280    2.5591   -0.3419 O.2       1 <0>        -0.9434
     22 H1          2.7446    4.1414   -1.0365 H         1 <0>         0.0739
     23 H2          2.2906    4.8996    0.5086 H         1 <0>         0.0747
     24 H3          3.2110    3.3761    0.5013 H         1 <0>         0.0645
     25 H4         -0.0811    4.9196    0.0044 H         1 <0>         0.1384
     26 H5         -2.1903    3.6544    0.0107 H         1 <0>         0.1301
     27 H6          0.0067   -0.0141   -0.0070 H         1 <0>         0.1460
     28 H7          3.1558    1.4794   -0.4957 H         1 <0>         0.4253
     29 H8          3.2201   -2.2995    1.8143 H         1 <0>         0.4159
     30 H9          6.0109   -1.8898    1.9565 H         1 <0>         0.0683
     31 H10         5.2082   -3.4765    2.0357 H         1 <0>         0.0855
     32 H11         5.6504   -2.7806    0.4582 H         1 <0>         0.0683
     33 H12        -2.8964   -0.2990   -1.5713 H         1 <0>         0.0896
     34 H13        -1.7215   -0.9209   -0.3933 H         1 <0>         0.1035
     35 H14        -3.4501   -1.3100    1.2644 H         1 <0>         0.1000
     36 H15        -4.1169   -1.9256   -0.2773 H         1 <0>         0.1197
     37 H16        -5.5730   -0.1571    1.1862 H         1 <0>         0.1486
     38 H17        -5.4876    0.0539   -0.5984 H         1 <0>         0.1476
@<TRIPOS>BOND
     1    1    2 1
     2    1   22 1
     3    1   23 1
     4    1   24 1
     5    2    7 ar
     6    2    3 ar
     7    3    4 ar
     8    3   25 1
     9    4    5 ar
    10    4   26 1
    11    5    6 ar
    12    5   15 1
    13    6    7 ar
    14    6   27 1
    15    7    8 1
    16    8    9 am
    17    8   28 1
    18    9   10 2
    19    9   11 1
    20   11   12 2
    21   11   13 am
    22   13   14 1
    23   13   29 1
    24   14   30 1
    25   14   31 1
    26   14   32 1
    27   15   19 1
    28   15   16 1
    29   16   17 1
    30   16   33 1
    31   16   34 1
    32   17   18 1
    33   17   35 1
    34   17   36 1
    35   18   19 1
    36   18   37 1
    37   18   38 1
    38   19   20 2
    39   19   21 2
@<TRIPOS>MOLECULE
ZINC37991742
   37    38     0     0     0
SMALL
USER_CHARGES

@<TRIPOS>ATOM
      1 C1         -0.0187    1.5258    0.0104 C.3       1 <0>        -0.1664
      2 C2          0.0021   -0.0041    0.0020 C.3       1 <0>         0.1388
      3 H1          0.5119   -0.3576   -0.8942 H         1 <0>         0.1050
      4 C3         -1.4340   -0.5372    0.0200 C.3       1 <0>        -0.1233
      5 C4         -2.1006   -0.1514    1.3425 C.3       1 <0>        -0.1114
      6 C5         -1.3351   -0.7861    2.5058 C.3       1 <0>        -0.1222
      7 H2         -1.3223   -1.8693    2.3850 H         1 <0>         0.1077
      8 C6          0.1020   -0.2557    2.5160 C.3       1 <0>         0.1389
      9 N1          0.7063   -0.4937    1.1949 N.pl3     1 <0>        -0.9890
     10 S1          2.1466   -1.2985    1.0535 S.o2      1 <0>         2.7169
     11 O1          2.2814   -2.0981    2.2204 O.2       1 <0>        -0.9347
     12 O2          2.1767   -1.8503   -0.2557 O.2       1 <0>        -0.9388
     13 C7          3.4274   -0.0903    1.1202 C.2       1 <0>        -0.5339
     14 C8          3.9536    0.5654    0.0666 C.2       1 <0>         0.1200
     15 N2          4.9131    1.4061    0.5627 N.pl3     1 <0>        -0.4472
     16 C9          4.9401    1.2351    1.9031 C.2       1 <0>         0.2066
     17 N3          4.0458    0.3428    2.2293 N.2       1 <0>        -0.4016
     18 C10         5.7538    2.3205   -0.2142 C.3       1 <0>         0.0578
     19 Cl1         3.5014    0.3793   -1.5991 Cl        1 <0>         0.0336
     20 C11        -2.0115   -0.4328    3.8053 C.2       1 <0>         0.5257
     21 O3         -1.4046    0.1801    4.6578 O.2       1 <0>        -0.5375
     22 N4         -3.2910   -0.7981    4.0201 N.am      1 <0>        -0.8542
     23 H3          1.0039    1.9031    0.0027 H         1 <0>         0.0547
     24 H4         -0.5459    1.8868   -0.8726 H         1 <0>         0.0709
     25 H5         -0.5289    1.8773    0.9072 H         1 <0>         0.0663
     26 H6         -1.9932   -0.1042   -0.8093 H         1 <0>         0.0842
     27 H7         -1.4202   -1.6228   -0.0774 H         1 <0>         0.0755
     28 H8         -2.0918    0.9332    1.4507 H         1 <0>         0.0758
     29 H9         -3.1305   -0.5084    1.3477 H         1 <0>         0.0730
     30 H10         0.0954    0.8136    2.7270 H         1 <0>         0.0817
     31 H11         0.6787   -0.7774    3.2798 H         1 <0>         0.1047
     32 H12         5.5913    1.7541    2.5909 H         1 <0>         0.2279
     33 H13         5.2576    3.2874   -0.2982 H         1 <0>         0.0915
     34 H14         6.7132    2.4468    0.2875 H         1 <0>         0.1036
     35 H15         5.9160    1.9076   -1.2098 H         1 <0>         0.0943
     36 H16        -3.7764   -1.2883    3.3382 H         1 <0>         0.4020
     37 H17        -3.7263   -0.5707    4.8565 H         1 <0>         0.4034
@<TRIPOS>BOND
     1    1    2 1
     2    1   23 1
     3    1   24 1
     4    1   25 1
     5    2    3 1
     6    2    9 1
     7    2    4 1
     8    4    5 1
     9    4   26 1
    10    4   27 1
    11    5    6 1
    12    5   28 1
    13    5   29 1
    14    6    7 1
    15    6    8 1
    16    6   20 1
    17    8    9 1
    18    8   30 1
    19    8   31 1
    20    9   10 1
    21   10   11 2
    22   10   12 2
    23   10   13 1
    24   13   17 1
    25   13   14 2
    26   14   15 1
    27   14   19 1
    28   15   16 1
    29   15   18 1
    30   16   17 2
    31   16   32 1
    32   18   33 1
    33   18   34 1
    34   18   35 1
    35   20   21 2
    36   20   22 am
    37   22   36 1
    38   22   37 1
@<TRIPOS>MOLECULE
ZINC45741494
   40    42     0     0     0
SMALL
USER_CHARGES

@<TRIPOS>ATOM
      1 C1         -0.0181    1.3826    0.0037 C.ar      1 <0>        -0.0124
      2 C2          1.1672    2.0940   -0.0063 C.ar      1 <0>        -0.1338
      3 C3          2.3803    1.4225   -0.0218 C.ar      1 <0>         0.1097
      4 C4          2.4011    0.0325   -0.0250 C.ar      1 <0>         0.0327
      5 C5          1.2085   -0.6749   -0.0161 C.ar      1 <0>        -0.0153
      6 C6          0.0026    0.0007   -0.0021 C.ar      1 <0>        -0.6788
      7 S1         -1.5109   -0.9015    0.0089 S.o2      1 <0>         2.6864
      8 O1         -1.2168   -2.1814    0.5517 O.2       1 <0>        -0.9394
      9 O2         -2.4920   -0.0420    0.5727 O.2       1 <0>        -0.9494
     10 N1         -1.9467   -1.1458   -1.5700 N.pl3     1 <0>        -1.1086
     11 C7         -1.1123   -1.9786   -2.4397 C.3       1 <0>         0.1391
     12 H1         -0.0712   -1.9090   -2.1244 H         1 <0>         0.1191
     13 C8         -1.2439   -1.5023   -3.8883 C.3       1 <0>        -0.1208
     14 C9         -2.6524   -1.0094   -4.1663 C.3       1 <0>        -0.1277
     15 C10        -3.7046   -2.1023   -4.1191 C.3       1 <0>        -0.1462
     16 C11        -3.8623   -2.6463   -2.6980 C.3       1 <0>         0.0896
     17 N2         -2.8705   -3.7138   -2.4896 N.am      1 <0>        -0.7173
     18 C12        -1.5730   -3.4189   -2.3595 C.2       1 <0>         0.5116
     19 O3         -0.7625   -4.3037   -2.1829 O.2       1 <0>        -0.5307
     20 O4          3.5807   -0.6463   -0.0323 O.3       1 <0>        -0.3008
     21 C13         4.7456    0.0920   -0.4168 C.3       1 <0>         0.0185
     22 C14         4.7321    1.4336    0.3282 C.3       1 <0>         0.0167
     23 O5          3.5390    2.1364   -0.0357 O.3       1 <0>        -0.3008
     24 H2         -0.9617    1.9076    0.0206 H         1 <0>         0.1517
     25 H3          1.1484    3.1738   -0.0024 H         1 <0>         0.1476
     26 H4          1.2219   -1.7548   -0.0207 H         1 <0>         0.1549
     27 H5         -2.7544   -0.7375   -1.9189 H         1 <0>         0.4246
     28 H6         -0.5383   -0.6904   -4.0647 H         1 <0>         0.0871
     29 H7         -1.0139   -2.3291   -4.5603 H         1 <0>         0.0838
     30 H8         -2.9071   -0.2491   -3.4279 H         1 <0>         0.0678
     31 H9         -2.6717   -0.5503   -5.1548 H         1 <0>         0.0774
     32 H10        -4.6586   -1.6961   -4.4553 H         1 <0>         0.0828
     33 H11        -3.4079   -2.9143   -4.7829 H         1 <0>         0.0756
     34 H12        -3.6936   -1.8449   -1.9787 H         1 <0>         0.0848
     35 H13        -4.8666   -3.0502   -2.5703 H         1 <0>         0.0921
     36 H14        -3.1602   -4.6384   -2.4437 H         1 <0>         0.4036
     37 H15         5.6412   -0.4685   -0.1484 H         1 <0>         0.1291
     38 H16         4.7305    0.2686   -1.4923 H         1 <0>         0.0819
     39 H17         4.7410    1.2570    1.4037 H         1 <0>         0.0843
     40 H18         5.6056    2.0206    0.0443 H         1 <0>         0.1294
@<TRIPOS>BOND
     1    1    6 ar
     2    1    2 ar
     3    1   24 1
     4    2    3 ar
     5    2   25 1
     6    3   23 1
     7    3    4 ar
     8    4    5 ar
     9    4   20 1
    10    5    6 ar
    11    5   26 1
    12    6    7 1
    13    7    8 2
    14    7    9 2
    15    7   10 1
    16   10   11 1
    17   10   27 1
    18   11   12 1
    19   11   18 1
    20   11   13 1
    21   13   14 1
    22   13   28 1
    23   13   29 1
    24   14   15 1
    25   14   30 1
    26   14   31 1
    27   15   16 1
    28   15   32 1
    29   15   33 1
    30   16   17 1
    31   16   34 1
    32   16   35 1
    33   17   18 am
    34   17   36 1
    35   18   19 2
    36   20   21 1
    37   21   22 1
    38   21   37 1
    39   21   38 1
    40   22   23 1
    41   22   39 1
    42   22   40 1
@<TRIPOS>MOLECULE
ZINC54416120
   32    33     0     0     0
SMALL
USER_CHARGES

@<TRIPOS>ATOM
      1 C1          1.1276   -0.5397   -0.6405 C.ar      1 <0>        -0.1101
      2 C2          2.3079    0.1748   -0.6630 C.ar      1 <0>        -0.0308
      3 C3          2.3772    1.4214   -0.0681 C.ar      1 <0>        -0.0720
      4 C4          1.2629    1.9614    0.5543 C.ar      1 <0>         0.1713
      5 C5          0.0753    1.2558    0.5830 C.ar      1 <0>        -0.1027
      6 C6          0.0009   -0.0026   -0.0161 C.ar      1 <0>        -0.0437
      7 C7         -1.2664   -0.7636    0.0105 C.2       1 <0>         0.5824
      8 O1         -2.3246   -0.1778    0.1309 O.2       1 <0>        -0.5025
      9 N1         -1.2483   -2.1068   -0.0986 N.am      1 <0>        -0.5965
     10 C8         -0.0398   -2.9508   -0.1215 C.3       1 <0>         0.0853
     11 C9         -0.5187   -4.3424    0.3620 C.3       1 <0>        -0.1316
     12 C10        -1.9260   -4.4298   -0.2855 C.3       1 <0>        -0.1250
     13 C11        -2.4308   -2.9736   -0.2080 C.3       1 <0>         0.1185
     14 H1         -3.0665   -2.8458    0.6681 H         1 <0>         0.1104
     15 C12        -3.2013   -2.6340   -1.4578 C.2       1 <0>         0.5095
     16 O2         -2.8073   -1.7532   -2.1926 O.2       1 <0>        -0.5247
     17 N2         -4.3283   -3.3090   -1.7590 N.am      1 <0>        -0.8514
     18 F1          1.3380    3.1793    1.1342 F         1 <0>        -0.0946
     19 N3          3.6469    2.1817   -0.0959 N.pl3     1 <0>         0.0309
     20 O3          4.6206    1.7127   -0.6378 O.2       1 <0>        -0.1447
     21 O4          3.7103    3.2716    0.4234 O.3       1 <0>        -0.1382
     22 H2          1.0745   -1.5112   -1.1092 H         1 <0>         0.1676
     23 H3          3.1798   -0.2407   -1.1461 H         1 <0>         0.1720
     24 H4         -0.7929    1.6765    1.0683 H         1 <0>         0.1722
     25 H5          0.3574   -3.0171   -1.1344 H         1 <0>         0.0816
     26 H6          0.7142   -2.5522    0.5572 H         1 <0>         0.0904
     27 H7          0.1333   -5.1317   -0.0123 H         1 <0>         0.0965
     28 H8         -0.5861   -4.3763    1.4493 H         1 <0>         0.0863
     29 H9         -1.8541   -4.7623   -1.3210 H         1 <0>         0.0866
     30 H10        -2.5744   -5.0914    0.2890 H         1 <0>         0.0986
     31 H11        -4.6434   -4.0134   -1.1714 H         1 <0>         0.4024
     32 H12        -4.8242   -3.0904   -2.5635 H         1 <0>         0.4058
@<TRIPOS>BOND
     1    1    6 ar
     2    1    2 ar
     3    1   22 1
     4    2    3 ar
     5    2   23 1
     6    3    4 ar
     7    3   19 1
     8    4    5 ar
     9    4   18 1
    10    5    6 ar
    11    5   24 1
    12    6    7 1
    13    7    8 2
    14    7    9 am
    15    9   13 1
    16    9   10 1
    17   10   11 1
    18   10   25 1
    19   10   26 1
    20   11   12 1
    21   11   27 1
    22   11   28 1
    23   12   13 1
    24   12   29 1
    25   12   30 1
    26   13   14 1
    27   13   15 1
    28   15   16 2
    29   15   17 am
    30   17   31 1
    31   17   32 1
    32   19   20 2
    33   19   21 1
@<TRIPOS>MOLECULE
ZINC64098403
   44    46     0     0     0
SMALL
USER_CHARGES

@<TRIPOS>ATOM
      1 C1          4.8908    4.0187    0.0001 C.2       1 <0>        -0.2219
      2 C2          3.8235    3.1216    0.1627 C.2       1 <0>        -0.1144
      3 C3          4.3193    1.8732   -0.0823 C.2       1 <0>        -0.0824
      4 O1          5.6291    1.9954   -0.3815 O.3       1 <0>        -0.1609
      5 C4          5.9775    3.2877   -0.3328 C.2       1 <0>        -0.0121
      6 C5          3.5608    0.6191   -0.0290 C.2       1 <0>         0.6044
      7 O2          2.3531    0.6441    0.1182 O.2       1 <0>        -0.5168
      8 N1          4.2014   -0.5612   -0.1432 N.am      1 <0>        -0.6063
      9 C6          3.4449   -1.8153   -0.2598 C.3       1 <0>         0.1117
     10 C7          3.9330   -2.7876    0.8188 C.3       1 <0>        -0.1144
     11 C8          5.4496   -2.9551    0.7005 C.3       1 <0>        -0.1053
     12 C9          6.1326   -1.6039    0.9235 C.3       1 <0>        -0.1250
     13 C10         5.6695   -0.6176   -0.1596 C.3       1 <0>         0.0974
     14 C11         5.9287   -3.9372    1.7383 C.2       1 <0>         0.5256
     15 O3          5.1356   -4.4523    2.4976 O.2       1 <0>        -0.5162
     16 N2          7.2386   -4.2430    1.8227 N.am      1 <0>        -0.7189
     17 C12         7.7043   -5.1977    2.8315 C.3       1 <0>         0.1364
     18 C13         9.1726   -4.9153    3.1592 C.3       1 <0>        -0.1303
     19 C14         9.7147   -6.0794    3.9974 C.3       1 <0>        -0.1354
     20 C15         9.7649   -7.3318    3.1213 C.3       1 <0>         0.1065
     21 N3          8.4838   -7.5426    2.4588 N.am      1 <0>        -0.7215
     22 C16         7.5589   -6.5950    2.3008 C.2       1 <0>         0.5015
     23 O4          6.5458   -6.8769    1.6965 O.2       1 <0>        -0.5308
     24 H1          4.8500    5.0918    0.1149 H         1 <0>         0.1579
     25 H2          2.8071    3.3707    0.4298 H         1 <0>         0.1609
     26 H3          6.9643    3.6809   -0.5279 H         1 <0>         0.2109
     27 H4          2.3827   -1.6158   -0.1183 H         1 <0>         0.1013
     28 H5          3.6090   -2.2507   -1.2455 H         1 <0>         0.0748
     29 H6          3.6864   -2.3917    1.8040 H         1 <0>         0.0774
     30 H7          3.4485   -3.7545    0.6831 H         1 <0>         0.0888
     31 H8          5.6973   -3.3276   -0.2934 H         1 <0>         0.1022
     32 H9          5.8654   -1.2191    1.9076 H         1 <0>         0.0763
     33 H10         7.2138   -1.7283    0.8622 H         1 <0>         0.0821
     34 H11         6.0113   -0.9574   -1.1373 H         1 <0>         0.0768
     35 H12         6.0756    0.3724    0.0480 H         1 <0>         0.1106
     36 H13         7.8729   -3.8310    1.2154 H         1 <0>         0.4027
     37 H14         7.1056   -5.0898    3.7359 H         1 <0>         0.1196
     38 H15         9.7450   -4.8305    2.2355 H         1 <0>         0.0782
     39 H16         9.2502   -3.9876    3.7262 H         1 <0>         0.0868
     40 H17        10.7177   -5.8398    4.3506 H         1 <0>         0.0939
     41 H18         9.0568   -6.2547    4.8486 H         1 <0>         0.0779
     42 H19        10.5446   -7.2141    2.3688 H         1 <0>         0.0685
     43 H20         9.9958   -8.1971    3.7427 H         1 <0>         0.0807
     44 H21         8.2922   -8.4275    2.1108 H         1 <0>         0.4008
@<TRIPOS>BOND
     1    1    5 2
     2    1    2 1
     3    1   24 1
     4    2    3 2
     5    2   25 1
     6    3    4 1
     7    3    6 1
     8    4    5 1
     9    5   26 1
    10    6    7 2
    11    6    8 am
    12    8   13 1
    13    8    9 1
    14    9   10 1
    15    9   27 1
    16    9   28 1
    17   10   11 1
    18   10   29 1
    19   10   30 1
    20   11   12 1
    21   11   14 1
    22   11   31 1
    23   12   13 1
    24   12   32 1
    25   12   33 1
    26   13   34 1
    27   13   35 1
    28   14   15 2
    29   14   16 am
    30   16   17 1
    31   16   36 1
    32   17   22 1
    33   17   18 1
    34   17   37 1
    35   18   19 1
    36   18   38 1
    37   18   39 1
    38   19   20 1
    39   19   40 1
    40   19   41 1
    41   20   21 1
    42   20   42 1
    43   20   43 1
    44   21   22 am
    45   21   44 1
    46   22   23 2
@<TRIPOS>MOLECULE
ZINC06292565
   27    27     0     0     0
SMALL
USER_CHARGES
2,3,5-trihydroxy-6-(hydroxymethyl)-4-sulfooxy-tetrahydropyran
@<TRIPOS>ATOM
      1 C1          0.2870    5.7250   -0.9007 C.3       1 <0>         0.0811
      2 C2          0.2876    4.4036   -0.1294 C.3       1 <0>         0.0636
      3 H1         -0.7204    3.9892   -0.1176 H         1 <0>         0.0964
      4 C3          1.2380    3.4152   -0.8103 C.3       1 <0>         0.0861
      5 H2          0.8823    3.2036   -1.8186 H         1 <0>         0.0822
      6 C4          1.2788    2.1167    0.0012 C.3       1 <0>         0.1303
      7 H3          1.9953    1.4279   -0.4463 H         1 <0>         0.1179
      8 C5          1.7051    2.4380    1.4370 C.3       1 <0>         0.0597
      9 H4          2.7146    2.8491    1.4339 H         1 <0>         0.0889
     10 C6          0.7366    3.4641    2.0310 C.3       1 <0>         0.2331
     11 H5          1.0598    3.7286    3.0378 H         1 <0>         0.0947
     12 O1          0.7236    4.6349    1.2117 O.3       1 <0>        -0.3840
     13 O2         -0.5773    2.9047    2.0836 O.3       1 <0>        -0.5335
     14 O3          1.6766    1.2443    2.2220 O.3       1 <0>        -0.4852
     15 O4         -0.0186    1.5178    0.0104 O.3       1 <0>        -0.7519
     16 S1          0.0021   -0.0041    0.0020 S.o2      1 <0>         2.7652
     17 O5         -1.3397   -0.4273   -0.1972 O.2       1 <0>        -1.0712
     18 O6          1.0596   -0.3911   -0.8646 O.2       1 <0>        -1.1026
     19 O7          2.5491    3.9801   -0.8738 O.3       1 <0>        -0.5502
     20 O8         -0.6844    6.6068   -0.3342 O.3       1 <0>        -0.5608
     21 H6          1.2741    6.1830   -0.8376 H         1 <0>         0.0543
     22 H7          0.0404    5.5357   -1.9455 H         1 <0>         0.0620
     23 H8         -1.2443    3.5011    2.4502 H         1 <0>         0.3688
     24 H9          1.9358    1.3739    3.1446 H         1 <0>         0.3610
     25 H10         2.5976    4.8063   -1.3739 H         1 <0>         0.3776
     26 H11        -0.7398    7.4659   -0.7745 H         1 <0>         0.3769
     27 O9          0.3978   -0.4564    1.4003 O.3       1 <0>        -1.0606
@<TRIPOS>BOND
     1    1    2 1
     2    1   20 1
     3    1   21 1
     4    1   22 1
     5    2    3 1
     6    2   12 1
     7    2    4 1
     8    4    5 1
     9    4    6 1
    10    4   19 1
    11    6    7 1
    12    6    8 1
    13    6   15 1
    14    8    9 1
    15    8   10 1
    16    8   14 1
    17   10   11 1
    18   10   12 1
    19   10   13 1
    20   13   23 1
    21   14   24 1
    22   15   16 1
    23   16   17 2
    24   16   18 2
    25   16   27 1
    26   19   25 1
    27   20   26 1
@<TRIPOS>MOLECULE
ZINC35797943
   26    25     0     0     0
SMALL
USER_CHARGES

@<TRIPOS>ATOM
      1 C1         -0.0225    1.8097    0.0120 C.3       1 <0>        -0.6745
      2 S1          0.0021   -0.0041    0.0020 S.o2      1 <0>         2.6189
      3 O1          0.8352   -0.4880    1.0465 O.2       1 <0>        -0.9547
      4 O2         -1.3147   -0.5105   -0.1678 O.2       1 <0>        -0.9591
      5 N1          0.7947   -0.4113   -1.3938 N.pl3     1 <0>        -1.1179
      6 C2          2.2072   -0.0612   -1.5629 C.3       1 <0>         0.1073
      7 C3          2.7924   -0.8537   -2.7335 C.3       1 <0>         0.1074
      8 N2          4.2049   -0.5036   -2.9026 N.pl3     1 <0>        -1.1328
      9 S2          5.1885   -1.4569   -3.8332 S.o2      1 <0>         2.6383
     10 O3          6.4679   -0.8435   -3.7545 O.2       1 <0>        -0.9583
     11 O4          4.9858   -2.7750   -3.3426 O.2       1 <0>        -0.9570
     12 C4          4.5265   -1.3077   -5.5154 C.3       1 <0>        -0.6856
     13 C5          5.3543   -2.1437   -6.4571 C.2       1 <0>         0.5189
     14 O5          6.3030   -2.7812   -6.0327 O.co2     1 <0>        -0.6791
     15 O6          5.0753   -2.1827   -7.6433 O.co2     1 <0>        -0.6701
     16 H1          1.0001    2.1870    0.0043 H         1 <0>         0.1276
     17 H2         -0.5497    2.1708   -0.8711 H         1 <0>         0.1291
     18 H3         -0.5327    2.1613    0.9088 H         1 <0>         0.1285
     19 H4          0.3237   -0.8815   -2.0994 H         1 <0>         0.4219
     20 H5          2.2952    1.0060   -1.7665 H         1 <0>         0.0727
     21 H6          2.7532   -0.3034   -0.6511 H         1 <0>         0.0916
     22 H7          2.7044   -1.9209   -2.5299 H         1 <0>         0.0907
     23 H8          2.2464   -0.6115   -3.6453 H         1 <0>         0.0717
     24 H9          4.5640    0.2865   -2.4694 H         1 <0>         0.4127
     25 H10         3.4940   -1.6566   -5.5318 H         1 <0>         0.1247
     26 H11         4.5624   -0.2643   -5.8288 H         1 <0>         0.1272
@<TRIPOS>BOND
     1    1    2 1
     2    1   16 1
     3    1   17 1
     4    1   18 1
     5    2    3 2
     6    2    4 2
     7    2    5 1
     8    5    6 1
     9    5   19 1
    10    6    7 1
    11    6   20 1
    12    6   21 1
    13    7    8 1
    14    7   22 1
    15    7   23 1
    16    8    9 1
    17    8   24 1
    18    9   10 2
    19    9   11 2
    20    9   12 1
    21   12   13 1
    22   12   25 1
    23   12   26 1
    24   13   14 2
    25   13   15 1
@<TRIPOS>MOLECULE
ZINC40532706
   37    37     0     0     0
SMALL
USER_CHARGES

@<TRIPOS>ATOM
      1 C1         -0.0363    1.5629    0.0252 C.3       1 <0>        -0.1807
      2 C2         -0.0357    0.0330    0.0120 C.3       1 <0>         0.1100
      3 H1         -1.0632   -0.3308    0.0206 H         1 <0>         0.0547
      4 C3          0.7000   -0.4875    1.2484 C.3       1 <0>         0.0974
      5 H2          1.7275   -0.1237    1.2398 H         1 <0>         0.0894
      6 C4          0.7006   -1.9944    1.2354 C.2       1 <0>         0.4974
      7 O1          1.6091   -2.5990    0.6918 O.co2     1 <0>        -0.6804
      8 O2         -0.2075   -2.6090    1.7685 O.co2     1 <0>        -0.6976
      9 N1          0.0230   -0.0098    2.4566 N.am      1 <0>        -0.7021
     10 C5          0.7086    0.1093    3.6108 C.2       1 <0>         0.7058
     11 O3          1.8890   -0.1798    3.6494 O.2       1 <0>        -0.5712
     12 N2          0.0857    0.5487    4.7223 N.am      1 <0>        -0.6906
     13 C6          0.7718    0.5808    5.9436 C.ar      1 <0>         0.1679
     14 C7          0.0980    0.3046    7.1259 C.ar      1 <0>        -0.1349
     15 C8          0.7738    0.3367    8.3292 C.ar      1 <0>        -0.0996
     16 C9          2.1276    0.6447    8.3572 C.ar      1 <0>         0.1086
     17 C10         2.8015    0.9205    7.1748 C.ar      1 <0>        -0.1228
     18 C11         2.1268    0.8833    5.9710 C.ar      1 <0>        -0.1033
     19 N3          2.8134    0.6777    9.5784 N.am      1 <0>        -0.6704
     20 C12         2.4875   -0.1888   10.5579 C.2       1 <0>         0.5062
     21 O4          1.5465   -0.9405   10.4143 O.2       1 <0>        -0.5280
     22 C13         3.2923   -0.2237   11.8315 C.3       1 <0>        -0.1686
     23 O5          0.6247   -0.4330   -1.1665 O.3       1 <0>        -0.5407
     24 H3          0.9912    1.9267    0.0165 H         1 <0>         0.0621
     25 H4         -0.5604    1.9337   -0.8557 H         1 <0>         0.0535
     26 H5         -0.5400    1.9183    0.9241 H         1 <0>         0.0614
     27 H6         -0.9187    0.2209    2.4258 H         1 <0>         0.3891
     28 H7         -0.8375    0.8428    4.6768 H         1 <0>         0.4032
     29 H8         -0.9549    0.0651    7.1041 H         1 <0>         0.1276
     30 H9          0.2496    0.1226    9.2489 H         1 <0>         0.1385
     31 H10         3.8544    1.1601    7.1965 H         1 <0>         0.1257
     32 H11         2.6518    1.0938    5.0509 H         1 <0>         0.1470
     33 H12         3.5227    1.3243    9.7190 H         1 <0>         0.4086
     34 H13         4.0901    0.5170   11.7776 H         1 <0>         0.0767
     35 H14         2.6434    0.0021   12.6777 H         1 <0>         0.0959
     36 H15         3.7256   -1.2156   11.9604 H         1 <0>         0.0976
     37 H16         0.2115   -0.1407   -1.9905 H         1 <0>         0.3667
@<TRIPOS>BOND
     1    1    2 1
     2    1   24 1
     3    1   25 1
     4    1   26 1
     5    2    3 1
     6    2    4 1
     7    2   23 1
     8    4    5 1
     9    4    6 1
    10    4    9 1
    11    6    7 2
    12    6    8 1
    13    9   10 am
    14    9   27 1
    15   10   11 2
    16   10   12 am
    17   12   13 1
    18   12   28 1
    19   13   18 ar
    20   13   14 ar
    21   14   15 ar
    22   14   29 1
    23   15   16 ar
    24   15   30 1
    25   16   17 ar
    26   16   19 1
    27   17   18 ar
    28   17   31 1
    29   18   32 1
    30   19   20 am
    31   19   33 1
    32   20   21 2
    33   20   22 1
    34   22   34 1
    35   22   35 1
    36   22   36 1
    37   23   37 1
@<TRIPOS>MOLECULE
ZINC41074062
   34    34     0     0     0
SMALL
USER_CHARGES

@<TRIPOS>ATOM
      1 C1         -0.0173    1.4265    0.0099 C.3       1 <0>         0.0209
      2 C2          1.4223    1.9486   -0.0011 C.3       1 <0>         0.0247
      3 O1          2.1151    1.3914   -1.1221 O.3       1 <0>        -0.3717
      4 C3          2.1345   -0.0392   -1.1299 C.3       1 <0>         0.0429
      5 H1          2.6600   -0.4012   -0.2463 H         1 <0>         0.0781
      6 C4          0.6949   -0.5612   -1.1190 C.3       1 <0>         0.0330
      7 O2          0.0021   -0.0041    0.0020 O.3       1 <0>        -0.3763
      8 C5          2.8497   -0.5339   -2.3887 C.3       1 <0>         0.1466
      9 N1          4.2566   -0.1281   -2.3424 N.am      1 <0>        -0.7359
     10 C6          5.0862   -0.4561   -3.3527 C.2       1 <0>         0.6959
     11 O3          4.6671   -1.0885   -4.3022 O.2       1 <0>        -0.5285
     12 N2          6.3805   -0.0827   -3.3101 N.am      1 <0>        -0.6916
     13 C7          7.2101   -0.4107   -4.3204 C.2       1 <0>         0.5113
     14 O4          6.7921   -1.0416   -5.2675 O.2       1 <0>        -0.4318
     15 C8          8.6573    0.0067   -4.2728 C.3       1 <0>         0.0410
     16 O5          9.3253   -0.4554   -5.4485 O.3       1 <0>        -0.3342
     17 C9         10.7110   -0.1105   -5.5032 C.3       1 <0>        -0.0036
     18 C10        11.3117   -0.6449   -6.7778 C.2       1 <0>         0.4976
     19 O6         10.6176   -1.2637   -7.5663 O.co2     1 <0>        -0.6679
     20 O7         12.4919   -0.4584   -7.0205 O.co2     1 <0>        -0.6962
     21 H2         -0.5258    1.7790    0.9073 H         1 <0>         0.1059
     22 H3         -0.5428    1.7886   -0.8738 H         1 <0>         0.0632
     23 H4          1.4151    3.0356   -0.0809 H         1 <0>         0.1072
     24 H5          1.9239    1.6534    0.9206 H         1 <0>         0.0622
     25 H6          0.1933   -0.2660   -2.0406 H         1 <0>         0.0682
     26 H7          0.7021   -1.6482   -1.0392 H         1 <0>         0.1111
     27 H8          2.7866   -1.6209   -2.4390 H         1 <0>         0.0890
     28 H9          2.3756   -0.1014   -3.2698 H         1 <0>         0.0805
     29 H10         4.5911    0.3766   -1.5847 H         1 <0>         0.4005
     30 H11         6.7150    0.4220   -2.5523 H         1 <0>         0.4077
     31 H12         8.7205    1.0937   -4.2226 H         1 <0>         0.0770
     32 H13         9.1315   -0.4259   -3.3918 H         1 <0>         0.0769
     33 H14        10.8168    0.9741   -5.4785 H         1 <0>         0.0481
     34 H15        11.2277   -0.5455   -4.6477 H         1 <0>         0.0481
@<TRIPOS>BOND
     1    1    7 1
     2    1    2 1
     3    1   21 1
     4    1   22 1
     5    2    3 1
     6    2   23 1
     7    2   24 1
     8    3    4 1
     9    4    5 1
    10    4    6 1
    11    4    8 1
    12    6    7 1
    13    6   25 1
    14    6   26 1
    15    8    9 1
    16    8   27 1
    17    8   28 1
    18    9   10 am
    19    9   29 1
    20   10   11 2
    21   10   12 am
    22   12   13 am
    23   12   30 1
    24   13   14 2
    25   13   15 1
    26   15   16 1
    27   15   31 1
    28   15   32 1
    29   16   17 1
    30   17   18 1
    31   17   33 1
    32   17   34 1
    33   18   19 2
    34   18   20 1
@<TRIPOS>MOLECULE
ZINC48987890
   36    36     0     0     0
SMALL
USER_CHARGES

@<TRIPOS>ATOM
      1 C1         -0.0187    1.5258    0.0104 C.3       1 <0>        -0.1794
      2 C2          0.0021   -0.0041    0.0020 C.3       1 <0>         0.1099
      3 H1         -1.0205   -0.3814    0.0098 H         1 <0>         0.0522
      4 C3          0.7182   -0.4975   -1.2568 C.3       1 <0>         0.0982
      5 H2          1.7408   -0.1202   -1.2645 H         1 <0>         0.0869
      6 C4          0.7387   -2.0043   -1.2651 C.2       1 <0>         0.4984
      7 O1         -0.1724   -2.6235   -1.7877 O.co2     1 <0>        -0.6994
      8 O2          1.6662   -2.6043   -0.7492 O.co2     1 <0>        -0.6834
      9 N1          0.0097   -0.0122   -2.4437 N.am      1 <0>        -0.7087
     10 C5          0.6691    0.1319   -3.6102 C.2       1 <0>         0.7107
     11 O3          1.8520   -0.1409   -3.6776 O.2       1 <0>        -0.5853
     12 N2          0.0172    0.5784   -4.7021 N.am      1 <0>        -0.6344
     13 C6         -1.4081    0.9071   -4.6209 C.3       1 <0>         0.0846
     14 C7          0.7340    0.7350   -5.9701 C.3       1 <0>         0.2143
     15 C8          0.6515   -0.5484   -6.7557 C.2       1 <0>        -0.2510
     16 C9          1.5542   -1.6146   -6.6873 C.2       1 <0>         0.0808
     17 N3          1.1499   -2.5460   -7.5124 N.2       1 <0>        -0.3019
     18 N4         -0.0247   -2.1013   -8.1328 N.pl3     1 <0>        -0.3831
     19 C10        -0.3123   -0.8754   -7.6475 C.2       1 <0>         0.0591
     20 C11        -0.8060   -2.8392   -9.1284 C.3       1 <0>         0.1047
     21 O4          0.6932   -0.4774    1.1597 O.3       1 <0>        -0.5409
     22 H3          1.0039    1.9031    0.0027 H         1 <0>         0.0619
     23 H4         -0.5459    1.8868   -0.8726 H         1 <0>         0.0612
     24 H5         -0.5289    1.8773    0.9072 H         1 <0>         0.0520
     25 H6         -0.9341    0.2054   -2.3899 H         1 <0>         0.3856
     26 H7         -1.5241    1.9557   -4.3471 H         1 <0>         0.0495
     27 H8         -1.8775    0.7302   -5.5887 H         1 <0>         0.0650
     28 H9         -1.8832    0.2799   -3.8666 H         1 <0>         0.0658
     29 H10         0.2821    1.5429   -6.5456 H         1 <0>         0.0763
     30 H11         1.7790    0.9719   -5.7700 H         1 <0>         0.0906
     31 H12         2.4332   -1.6610   -6.0615 H         1 <0>         0.1856
     32 H13        -1.1586   -0.2638   -7.9233 H         1 <0>         0.1686
     33 H14        -1.5578   -3.4459   -8.6235 H         1 <0>         0.0715
     34 H15        -1.2981   -2.1347   -9.7990 H         1 <0>         0.0828
     35 H16        -0.1436   -3.4861   -9.7036 H         1 <0>         0.0860
     36 H17         0.2938   -0.2021    1.9962 H         1 <0>         0.3653
@<TRIPOS>BOND
     1    1    2 1
     2    1   22 1
     3    1   23 1
     4    1   24 1
     5    2    3 1
     6    2    4 1
     7    2   21 1
     8    4    5 1
     9    4    6 1
    10    4    9 1
    11    6    7 2
    12    6    8 1
    13    9   10 am
    14    9   25 1
    15   10   11 2
    16   10   12 am
    17   12   13 1
    18   12   14 1
    19   13   26 1
    20   13   27 1
    21   13   28 1
    22   14   15 1
    23   14   29 1
    24   14   30 1
    25   15   19 2
    26   15   16 1
    27   16   17 2
    28   16   31 1
    29   17   18 1
    30   18   19 1
    31   18   20 1
    32   19   32 1
    33   20   33 1
    34   20   34 1
    35   20   35 1
    36   21   36 1
@<TRIPOS>MOLECULE
ZINC20258390
   33    34     0     0     0
SMALL
USER_CHARGES
(2S)-3-(1H-imidazol-4-yl)-2-[[(2S)-2-(1,2,4-triazol-1-yl)propanoyl]amino]propanoic acid
@<TRIPOS>ATOM
      1 C1          0.6390    5.9504    0.3667 C.3       1 <0>        -0.1590
      2 C2         -0.6080    5.6434    1.1984 C.3       1 <0>         0.1397
      3 H1         -1.4867    6.1744    0.8036 H         1 <0>         0.1271
      4 C3         -0.8633    4.1582    1.1915 C.2       1 <0>         0.5087
      5 O1         -0.8708    3.5393    2.2346 O.2       1 <0>        -0.5348
      6 N1         -1.0832    3.5176    0.0263 N.am      1 <0>        -0.6983
      7 C4         -1.3313    2.0738    0.0196 C.3       1 <0>         0.1105
      8 H2         -1.8882    1.8288    0.9360 H         1 <0>         0.0809
      9 C5         -2.1344    1.7001   -1.2279 C.3       1 <0>        -0.0422
     10 C6         -3.4977    2.3385   -1.1576 C.2       1 <0>        -0.0322
     11 C7         -4.0432    3.1441   -2.0887 C.2       1 <0>        -0.0288
     12 N2         -5.2845    3.4951   -1.6306 N.2       1 <0>        -0.5006
     13 H3         -4.1280    1.5899    0.7203 H         1 <0>         0.4480
     14 C8         -5.4506    2.8988   -0.4304 C.2       1 <0>         0.1684
     15 N3         -4.3780    2.2088   -0.1540 N.pl3     1 <0>        -0.5258
     16 C9         -0.0161    1.3381    0.0094 C.2       1 <0>         0.4588
     17 O2          1.0219    1.9564    0.0028 O.co2     1 <0>        -0.6228
     18 O3          0.0021   -0.0041    0.0020 O.co2     1 <0>        -0.7623
     19 N4         -0.4002    6.0968    2.5759 N.pl3     1 <0>        -0.3508
     20 C10         0.7529    6.0730    3.2666 C.2       1 <0>         0.2872
     21 N5          0.5233    6.5653    4.4568 N.2       1 <0>        -0.5499
     22 C11        -0.7605    6.9049    4.5656 C.2       1 <0>         0.2084
     23 N6         -1.3672    6.6370    3.4392 N.2       1 <0>        -0.3204
     24 H4          0.8253    7.0345    0.3717 H         1 <0>         0.0758
     25 H5          0.4828    5.6100   -0.6676 H         1 <0>         0.0953
     26 H6          1.5053    5.4274    0.7980 H         1 <0>         0.0806
     27 H7         -1.0764    4.0789   -0.9197 H         1 <0>         0.4125
     28 H8         -1.6073    2.0588   -2.1243 H         1 <0>         0.0912
     29 H9         -2.2437    0.6068   -1.2797 H         1 <0>         0.1020
     30 H10        -3.5321    3.3663   -2.9190 H         1 <0>         0.1551
     31 H11        -6.2996    3.0320    0.0809 H         1 <0>         0.1859
     32 H12         1.6721    5.7645    3.0219 H         1 <0>         0.1976
     33 H13        -1.2725    7.3023    5.3271 H         1 <0>         0.1941
@<TRIPOS>BOND
     1    1    2 1
     2    1   24 1
     3    1   25 1
     4    1   26 1
     5    2    3 1
     6    2    4 1
     7    2   19 1
     8    4    5 2
     9    4    6 am
    10    6    7 1
    11    6   27 1
    12    7    8 1
    13    7    9 1
    14    7   16 1
    15    9   10 1
    16    9   28 1
    17    9   29 1
    18   10   15 1
    19   10   11 2
    20   11   12 1
    21   11   30 1
    22   12   14 2
    23   13   15 1
    24   14   31 1
    25   14   15 1
    26   16   17 2
    27   16   18 1
    28   19   23 1
    29   19   20 1
    30   20   21 2
    31   20   32 1
    32   21   22 1
    33   22   23 2
    34   22   33 1
@<TRIPOS>MOLECULE
ZINC37431986
   36    36     0     0     0
SMALL
USER_CHARGES

@<TRIPOS>ATOM
      1 C1         -0.0058    1.5020    0.0085 C.3       1 <0>        -0.1387
      2 C2          0.0021   -0.0050    0.0020 C.2       1 <0>         0.0336
      3 C3         -0.1044   -0.7214   -1.1965 C.2       1 <0>         0.0572
      4 N1         -0.0966   -2.0266   -1.1931 N.2       1 <0>        -0.2149
      5 N2          0.0067   -2.7215   -0.1200 N.am      1 <0>        -0.3436
      6 C4          0.1154   -2.1469    1.0932 C.2       1 <0>         0.4953
      7 O1          0.2121   -2.8335    2.0959 O.2       1 <0>        -0.5241
      8 C5          0.1214   -0.7268    1.1876 C.2       1 <0>        -0.2145
      9 C6          0.2440   -0.0464    2.4895 C.2       1 <0>         0.5681
     10 O2          0.1458    1.1640    2.5546 O.2       1 <0>        -0.5376
     11 N3          0.4649   -0.7656    3.6077 N.am      1 <0>        -0.6737
     12 C7          0.4719   -0.1041    4.9148 C.3       1 <0>         0.0391
     13 H1         -0.2625    0.7014    4.9182 H         1 <0>         0.0871
     14 C8          0.1192   -1.1204    6.0027 C.3       1 <0>         0.1106
     15 H2          0.0372   -0.6111    6.9629 H         1 <0>         0.1069
     16 C9         -1.2152   -1.7878    5.6638 C.3       1 <0>        -0.1819
     17 O3          1.1435   -2.1140    6.0764 O.3       1 <0>        -0.5494
     18 C10         1.8417    0.4639    5.1830 C.2       1 <0>         0.5032
     19 O4          1.9633    1.4635    5.8704 O.co2     1 <0>        -0.6974
     20 O5          2.8284   -0.0762    4.7126 O.co2     1 <0>        -0.6826
     21 C11         0.0060   -4.1833   -0.2169 C.3       1 <0>         0.0848
     22 C12        -0.2295    0.0213   -2.5018 C.3       1 <0>        -0.0876
     23 H3          1.0199    1.8707    0.0117 H         1 <0>         0.0932
     24 H4         -0.5202    1.8665   -0.8807 H         1 <0>         0.0741
     25 H5         -0.5229    1.8588    0.8993 H         1 <0>         0.1173
     26 H6          0.6192   -1.7214    3.5470 H         1 <0>         0.4043
     27 H7         -1.1333   -2.2971    4.7036 H         1 <0>         0.0591
     28 H8         -1.4665   -2.5119    6.4389 H         1 <0>         0.0588
     29 H9         -1.9966   -1.0299    5.6076 H         1 <0>         0.0613
     30 H10         1.2720   -2.6081    5.2552 H         1 <0>         0.3683
     31 H11        -0.0891   -4.4782   -1.2619 H         1 <0>         0.0987
     32 H12         0.9395   -4.5747    0.1876 H         1 <0>         0.0879
     33 H13        -0.8328   -4.5847    0.3517 H         1 <0>         0.0863
     34 H14         0.7637    0.2065   -2.9111 H         1 <0>         0.0832
     35 H15        -0.8070   -0.5771   -3.2064 H         1 <0>         0.0799
     36 H16        -0.7355    0.9717   -2.3321 H         1 <0>         0.0878
@<TRIPOS>BOND
     1    1    2 1
     2    1   23 1
     3    1   24 1
     4    1   25 1
     5    2    8 2
     6    2    3 1
     7    3    4 2
     8    3   22 1
     9    4    5 1
    10    5    6 am
    11    5   21 1
    12    6    7 2
    13    6    8 1
    14    8    9 1
    15    9   10 2
    16    9   11 am
    17   11   12 1
    18   11   26 1
    19   12   13 1
    20   12   14 1
    21   12   18 1
    22   14   15 1
    23   14   16 1
    24   14   17 1
    25   16   27 1
    26   16   28 1
    27   16   29 1
    28   17   30 1
    29   18   19 2
    30   18   20 1
    31   21   31 1
    32   21   32 1
    33   21   33 1
    34   22   34 1
    35   22   35 1
    36   22   36 1
@<TRIPOS>MOLECULE
ZINC40547058
   28    28     0     0     0
SMALL
USER_CHARGES

@<TRIPOS>ATOM
      1 C1         -0.0167    1.3819    0.0096 C.ar      1 <0>        -0.2702
      2 C2          1.1918    2.0606    0.0017 C.ar      1 <0>         0.1790
      3 N1          2.3196    1.3696   -0.0127 N.ar      1 <0>        -0.5540
      4 C3          2.3023    0.0456   -0.0197 C.ar      1 <0>         0.5571
      5 N2          1.1655   -0.6333   -0.0125 N.ar      1 <0>        -0.4993
      6 C4          0.0021   -0.0041    0.0020 C.ar      1 <0>         0.1785
      7 N3          3.5057   -0.6479   -0.0354 N.am      1 <0>        -0.6474
      8 C5          3.5068   -1.9956   -0.0426 C.2       1 <0>         0.7021
      9 O1          2.4545   -2.6044   -0.0354 O.2       1 <0>        -0.5247
     10 N4          4.6745   -2.6685   -0.0578 N.am      1 <0>        -0.7233
     11 C6          4.6757   -4.1334   -0.0657 C.3       1 <0>         0.1203
     12 C7          6.0969   -4.6345   -0.0825 C.2       1 <0>         0.4977
     13 O2          7.0180   -3.8456   -0.0874 O.2       1 <0>        -0.5601
     14 N5          6.3442   -5.9594   -0.0921 N.am      1 <0>        -0.6897
     15 C8          7.7257   -6.4465   -0.1085 C.3       1 <0>         0.0501
     16 C9          7.7270   -7.9535   -0.1166 C.2       1 <0>         0.4900
     17 O3          6.6716   -8.5640   -0.1094 O.co2     1 <0>        -0.6902
     18 O4          8.7833   -8.5622   -0.1303 O.co2     1 <0>        -0.6868
     19 H1         -0.9524    1.9210    0.0259 H         1 <0>         0.1477
     20 H2          1.2124    3.1404    0.0070 H         1 <0>         0.1717
     21 H3         -0.9218   -0.5633    0.0082 H         1 <0>         0.1711
     22 H4          4.3453   -0.1621   -0.0411 H         1 <0>         0.4210
     23 H5          5.5141   -2.1827   -0.0636 H         1 <0>         0.4094
     24 H6          4.1710   -4.5020    0.8273 H         1 <0>         0.1008
     25 H7          4.1534   -4.4924   -0.9525 H         1 <0>         0.1008
     26 H8          5.6075   -6.5903   -0.0882 H         1 <0>         0.4120
     27 H9          8.2304   -6.0779   -1.0015 H         1 <0>         0.0683
     28 H10         8.2481   -6.0875    0.7783 H         1 <0>         0.0683
@<TRIPOS>BOND
     1    1    6 ar
     2    1    2 ar
     3    1   19 1
     4    2    3 ar
     5    2   20 1
     6    3    4 ar
     7    4    5 ar
     8    4    7 1
     9    5    6 ar
    10    6   21 1
    11    7    8 am
    12    7   22 1
    13    8    9 2
    14    8   10 am
    15   10   11 1
    16   10   23 1
    17   11   12 1
    18   11   24 1
    19   11   25 1
    20   12   13 2
    21   12   14 am
    22   14   15 1
    23   14   26 1
    24   15   16 1
    25   15   27 1
    26   15   28 1
    27   16   17 2
    28   16   18 1
@<TRIPOS>MOLECULE
ZINC42439519
   40    40     0     0     0
SMALL
USER_CHARGES

@<TRIPOS>ATOM
      1 C1          0.0148    1.5275   -0.0100 C.3       1 <0>        -0.1355
      2 C2          0.0165   -0.0025   -0.0074 C.3       1 <0>         0.1656
      3 H1         -1.0061   -0.3689    0.0830 H         1 <0>         0.0602
      4 C3          0.6332   -0.5177   -1.3117 C.3       1 <0>        -0.1504
      5 C4          0.7596   -2.0414   -1.2445 C.3       1 <0>        -0.0933
      6 C5          1.6839   -2.4278   -0.0876 C.3       1 <0>        -0.1291
      7 H2          1.7921   -3.5119   -0.0549 H         1 <0>         0.1040
      8 C6          1.0791   -1.9343    1.2306 C.3       1 <0>         0.1241
      9 N1          0.8168   -0.4923    1.1233 N.am      1 <0>        -0.6320
     10 C7          1.3040    0.3650    2.0420 C.2       1 <0>         0.7117
     11 O1          0.9946    1.5402    2.0014 O.2       1 <0>        -0.5784
     12 N2          2.1342   -0.0803    3.0059 N.am      1 <0>        -0.7035
     13 C8          2.5743    0.8257    4.0697 C.3       1 <0>         0.0982
     14 H3          1.7664    1.5139    4.3182 H         1 <0>         0.0882
     15 C9          2.9503    0.0118    5.3095 C.3       1 <0>         0.1091
     16 H4          3.1925    0.6888    6.1288 H         1 <0>         0.0697
     17 C10         1.7718   -0.8764    5.7134 C.3       1 <0>        -0.1792
     18 O2          4.0847   -0.8062    5.0163 O.3       1 <0>        -0.5535
     19 C11         3.7735    1.6077    3.5994 C.2       1 <0>         0.5010
     20 O3          4.2193    1.4252    2.4794 O.co2     1 <0>        -0.6755
     21 O4          4.2980    2.4229    4.3389 O.co2     1 <0>        -0.7076
     22 C12         3.0357   -1.7933   -0.2903 C.2       1 <0>         0.5261
     23 O5          3.2403   -1.1000   -1.2642 O.2       1 <0>        -0.5358
     24 N3          4.0173   -1.9962    0.6107 N.am      1 <0>        -0.8438
     25 H5          1.0420    1.8919    0.0015 H         1 <0>         0.0702
     26 H6         -0.4889    1.8887   -0.9066 H         1 <0>         0.0345
     27 H7         -0.5099    1.8917    0.8732 H         1 <0>         0.0772
     28 H8         -0.0065   -0.2423   -2.1502 H         1 <0>         0.0675
     29 H9          1.6206   -0.0763   -1.4464 H         1 <0>         0.1017
     30 H10        -0.2251   -2.4808   -1.0850 H         1 <0>         0.0662
     31 H11         1.1754   -2.4128   -2.1811 H         1 <0>         0.0688
     32 H12         0.1440   -2.4602    1.4231 H         1 <0>         0.0762
     33 H13         1.7791   -2.1189    2.0455 H         1 <0>         0.0769
     34 H14         2.4403   -1.0007    2.9952 H         1 <0>         0.3836
     35 H15         0.9065   -0.2524    5.9370 H         1 <0>         0.0629
     36 H16         1.5296   -1.5533    4.8941 H         1 <0>         0.0569
     37 H17         2.0397   -1.4562    6.5966 H         1 <0>         0.0523
     38 H18         4.3793   -1.3510    5.7590 H         1 <0>         0.3640
     39 H19         3.8536   -2.5506    1.3896 H         1 <0>         0.3945
     40 H20         4.8874   -1.5877    0.4803 H         1 <0>         0.4063
@<TRIPOS>BOND
     1    1    2 1
     2    1   25 1
     3    1   26 1
     4    1   27 1
     5    2    3 1
     6    2    9 1
     7    2    4 1
     8    4    5 1
     9    4   28 1
    10    4   29 1
    11    5    6 1
    12    5   30 1
    13    5   31 1
    14    6    7 1
    15    6    8 1
    16    6   22 1
    17    8    9 1
    18    8   32 1
    19    8   33 1
    20    9   10 am
    21   10   11 2
    22   10   12 am
    23   12   13 1
    24   12   34 1
    25   13   14 1
    26   13   15 1
    27   13   19 1
    28   15   16 1
    29   15   17 1
    30   15   18 1
    31   17   35 1
    32   17   36 1
    33   17   37 1
    34   18   38 1
    35   19   20 2
    36   19   21 1
    37   22   23 2
    38   22   24 am
    39   24   39 1
    40   24   40 1
@<TRIPOS>MOLECULE
ZINC45090595
   40    40     0     0     0
SMALL
USER_CHARGES

@<TRIPOS>ATOM
      1 C1         -0.0187    1.5258    0.0104 C.3       1 <0>        -0.1155
      2 C2          1.4167    2.0553   -0.0004 C.3       1 <0>        -0.1161
      3 C3          2.1328    1.5619   -1.2592 C.3       1 <0>        -0.1053
      4 C4          2.1536    0.0321   -1.2676 C.3       1 <0>         0.1285
      5 C5          0.7182   -0.4975   -1.2568 C.3       1 <0>        -0.1132
      6 C6          0.0021   -0.0041    0.0020 C.3       1 <0>        -0.1124
      7 C7          2.8590   -0.4539   -2.5075 C.2       1 <0>         0.5003
      8 O1          3.8607   -1.1419   -2.4089 O.co2     1 <0>        -0.6752
      9 O2          2.4279   -0.1591   -3.6092 O.co2     1 <0>        -0.7038
     10 N1          2.8622   -0.4532   -0.0808 N.am      1 <0>        -0.7152
     11 C8          3.0053   -1.7776    0.1240 C.2       1 <0>         0.7140
     12 O3          2.5463   -2.5696   -0.6762 O.2       1 <0>        -0.5679
     13 N2          3.6571   -2.2241    1.2159 N.am      1 <0>        -0.7613
     14 C9          3.8127   -3.6637    1.4386 C.3       1 <0>         0.1529
     15 C10         4.5840   -3.8982    2.7389 C.3       1 <0>        -0.1233
     16 C11         4.7465   -5.4017    2.9714 C.3       1 <0>        -0.6162
     17 S1          5.6610   -5.6798    4.5132 S.o2      1 <0>         2.6160
     18 O4          7.0041   -5.2376    4.3721 O.2       1 <0>        -0.9627
     19 O5          4.8777   -5.2734    5.6270 O.2       1 <0>        -0.9646
     20 N3          5.7706   -7.3263    4.6519 N.pl3     1 <0>        -1.2524
     21 H1         -0.5289    1.8773    0.9072 H         1 <0>         0.0514
     22 H2         -0.5459    1.8868   -0.8726 H         1 <0>         0.0599
     23 H3          1.4019    3.1452    0.0056 H         1 <0>         0.0559
     24 H4          1.9439    1.6943    0.8826 H         1 <0>         0.0546
     25 H5          1.6057    1.9230   -2.1423 H         1 <0>         0.0801
     26 H6          3.1554    1.9392   -1.2670 H         1 <0>         0.0576
     27 H7          0.1910   -0.1364   -2.1398 H         1 <0>         0.0667
     28 H8          0.7330   -1.5874   -1.2628 H         1 <0>         0.0768
     29 H9          0.5293   -0.3651    0.8851 H         1 <0>         0.0540
     30 H10        -1.0205   -0.3814    0.0098 H         1 <0>         0.0503
     31 H11         3.2283    0.1786    0.5577 H         1 <0>         0.3787
     32 H12         4.0233   -1.5922    1.8544 H         1 <0>         0.3878
     33 H13         2.8294   -4.1286    1.5104 H         1 <0>         0.0646
     34 H14         4.3622   -4.1028    0.6059 H         1 <0>         0.0686
     35 H15         5.5673   -3.4333    2.6670 H         1 <0>         0.0877
     36 H16         4.0345   -3.4591    3.5716 H         1 <0>         0.0859
     37 H17         3.7632   -5.8666    3.0433 H         1 <0>         0.1391
     38 H18         5.2960   -5.8408    2.1388 H         1 <0>         0.1406
     39 H19         5.3792   -7.8974    3.9725 H         1 <0>         0.4136
     40 H20         6.2261   -7.7197    5.4126 H         1 <0>         0.4194
@<TRIPOS>BOND
     1    1    6 1
     2    1    2 1
     3    1   21 1
     4    1   22 1
     5    2    3 1
     6    2   23 1
     7    2   24 1
     8    3    4 1
     9    3   25 1
    10    3   26 1
    11    4    5 1
    12    4    7 1
    13    4   10 1
    14    5    6 1
    15    5   27 1
    16    5   28 1
    17    6   29 1
    18    6   30 1
    19    7    8 2
    20    7    9 1
    21   10   11 am
    22   10   31 1
    23   11   12 2
    24   11   13 am
    25   13   14 1
    26   13   32 1
    27   14   15 1
    28   14   33 1
    29   14   34 1
    30   15   16 1
    31   15   35 1
    32   15   36 1
    33   16   17 1
    34   16   37 1
    35   16   38 1
    36   17   18 2
    37   17   19 2
    38   17   20 1
    39   20   39 1
    40   20   40 1
@<TRIPOS>MOLECULE
ZINC04521543
   27    26     0     0     0
SMALL
USER_CHARGES
2-(2-guanidinoethylsulfanyl)butanedioic acid
@<TRIPOS>ATOM
      1 C1          0.1720    0.9578   -1.0774 C.3       1 <0>         0.1155
      2 C2          1.1891    0.2601   -0.1721 C.3       1 <0>        -0.1304
      3 S1          0.7577    0.5585    1.5644 S.3       1 <0>        -0.1830
      4 C3          2.0425   -0.3229    2.4935 C.3       1 <0>        -0.0576
      5 H1          2.0717   -1.3646    2.1741 H         1 <0>         0.0803
      6 C4          1.7265   -0.2566    3.9890 C.3       1 <0>        -0.1276
      7 C5          0.4489   -1.0062    4.2662 C.2       1 <0>         0.4610
      8 O1         -0.1477   -1.5387    3.3606 O.co2     1 <0>        -0.6292
      9 C6          3.3806    0.3200    2.2337 C.2       1 <0>         0.4682
     10 O2          4.2139   -0.2624    1.5809 O.co2     1 <0>        -0.6489
     11 N1          0.5203    0.7167   -2.4798 N.pl3     1 <0>        -0.6805
     12 C7         -0.2559    1.2487   -3.4822 C.cat     1 <0>         0.7343
     13 N2         -1.3591    2.0068   -3.1684 N.pl3     1 <0>        -0.8077
     14 H2         -0.8239    0.5623   -0.8773 H         1 <0>         0.1011
     15 H3          0.1839    2.0294   -0.8791 H         1 <0>         0.0990
     16 H4          1.1772   -0.8116   -0.3705 H         1 <0>         0.0871
     17 H5          2.1850    0.6556   -0.3722 H         1 <0>         0.0902
     18 H6          2.5426   -0.7083    4.5532 H         1 <0>         0.0755
     19 H7          1.6096    0.7845    4.2898 H         1 <0>         0.0791
     20 H8          1.2987    0.1818   -2.7012 H         1 <0>         0.4344
     21 H9         -0.4313    1.3668   -5.5079 H         1 <0>         0.4449
     22 H10        -1.5897    2.1664   -2.2398 H         1 <0>         0.4422
     23 H11        -1.9067    2.3821   -3.8756 H         1 <0>         0.4326
     24 O3         -0.0262   -1.0822    5.5194 O.co2     1 <0>        -0.7832
     25 O4          3.6465    1.5394    2.7277 O.co2     1 <0>        -0.7453
     26 N3          0.1124    0.9942   -4.7294 N.pl3     1 <0>        -0.8063
     27 H12         0.9452    0.4221   -4.9122 H         1 <0>         0.4544
@<TRIPOS>BOND
     1    1    2 1
     2    1   11 1
     3    1   14 1
     4    1   15 1
     5    2    3 1
     6    2   16 1
     7    2   17 1
     8    3    4 1
     9    4    5 1
    10    4    6 1
    11    4    9 1
    12    6    7 1
    13    6   18 1
    14    6   19 1
    15    7    8 2
    16    7   24 1
    17    9   10 2
    18    9   25 1
    19   11   12 1
    20   11   20 1
    21   12   13 1
    22   12   26 2
    23   13   22 1
    24   13   23 1
    25   21   26 1
    26   26   27 1
@<TRIPOS>MOLECULE
ZINC36976645
   39    40     0     0     0
SMALL
USER_CHARGES

@<TRIPOS>ATOM
      1 C1         -0.0187    1.5258    0.0104 C.3       1 <0>        -0.1748
      2 C2          1.3165    0.7789   -0.0063 C.3       1 <0>        -0.1783
      3 C3          0.0021   -0.0041    0.0020 C.3       1 <0>        -0.1699
      4 C4         -0.4085   -0.7090   -1.2923 C.3       1 <0>         0.1575
      5 N1         -0.4408   -2.1568   -1.0708 N.am      1 <0>        -0.6152
      6 C5          0.7066   -3.0505   -1.2679 C.3       1 <0>         0.1179
      7 C6          0.3488   -4.3523   -0.5170 C.3       1 <0>        -0.1203
      8 H1          0.7321   -4.3321    0.5032 H         1 <0>         0.1138
      9 C7         -1.1968   -4.3082   -0.5285 C.3       1 <0>        -0.1426
     10 C8         -1.5235   -2.8366   -0.6554 C.2       1 <0>         0.5223
     11 O1         -2.6055   -2.3424   -0.4192 O.2       1 <0>        -0.5372
     12 C9          0.8603   -5.5605   -1.2585 C.2       1 <0>         0.5336
     13 O2          1.4632   -5.4215   -2.3016 O.2       1 <0>        -0.5443
     14 N2          0.6477   -6.7954   -0.7624 N.am      1 <0>        -0.6805
     15 C10         1.1448   -7.9700   -1.4832 C.3       1 <0>         0.0933
     16 H2          1.0787   -7.7924   -2.5566 H         1 <0>         0.0911
     17 C11         0.2985   -9.1903   -1.1150 C.3       1 <0>        -0.1353
     18 C12        -1.1123   -8.9895   -1.6051 C.2       1 <0>         0.5132
     19 O3         -1.4115   -7.9707   -2.1911 O.2       1 <0>        -0.5333
     20 N3         -2.0417   -9.9421   -1.3921 N.am      1 <0>        -0.8630
     21 C13         2.5812   -8.2217   -1.1032 C.2       1 <0>         0.4917
     22 O4          3.0831   -7.6085   -0.1765 O.co2     1 <0>        -0.6832
     23 O5          3.2415   -9.0385   -1.7224 O.co2     1 <0>        -0.6947
     24 H3         -0.3072    2.0201    0.9381 H         1 <0>         0.0939
     25 H4         -0.3248    2.0300   -0.9061 H         1 <0>         0.0951
     26 H5          1.8888    0.7918   -0.9339 H         1 <0>         0.0962
     27 H6          1.9064    0.7818    0.9103 H         1 <0>         0.0937
     28 H7         -0.2728   -0.5162    0.9241 H         1 <0>         0.1058
     29 H8         -1.3977   -0.3657   -1.5950 H         1 <0>         0.0857
     30 H9          0.3122   -0.4774   -2.0766 H         1 <0>         0.0816
     31 H10         0.8483   -3.2540   -2.3293 H         1 <0>         0.0942
     32 H11         1.6076   -2.6064   -0.8447 H         1 <0>         0.0843
     33 H12        -1.5879   -4.8646   -1.3803 H         1 <0>         0.1138
     34 H13        -1.5967   -4.7059    0.4042 H         1 <0>         0.1055
     35 H14         0.1654   -6.9066    0.0719 H         1 <0>         0.3884
     36 H15         0.7219  -10.0800   -1.5811 H         1 <0>         0.1117
     37 H16         0.2927   -9.3151   -0.0322 H         1 <0>         0.0936
     38 H17        -1.8024  -10.7569   -0.9234 H         1 <0>         0.3994
     39 H18        -2.9498   -9.8128   -1.7076 H         1 <0>         0.3952
@<TRIPOS>BOND
     1    1    3 1
     2    1    2 1
     3    1   24 1
     4    1   25 1
     5    2    3 1
     6    2   26 1
     7    2   27 1
     8    3    4 1
     9    3   28 1
    10    4    5 1
    11    4   29 1
    12    4   30 1
    13    5   10 am
    14    5    6 1
    15    6    7 1
    16    6   31 1
    17    6   32 1
    18    7    8 1
    19    7    9 1
    20    7   12 1
    21    9   10 1
    22    9   33 1
    23    9   34 1
    24   10   11 2
    25   12   13 2
    26   12   14 am
    27   14   15 1
    28   14   35 1
    29   15   16 1
    30   15   17 1
    31   15   21 1
    32   17   18 1
    33   17   36 1
    34   17   37 1
    35   18   19 2
    36   18   20 am
    37   20   38 1
    38   20   39 1
    39   21   22 2
    40   21   23 1
@<TRIPOS>MOLECULE
ZINC40548655
   37    37     0     0     0
SMALL
USER_CHARGES

@<TRIPOS>ATOM
      1 C1         -0.0187    1.5258    0.0104 C.3       1 <0>        -0.1804
      2 C2          0.0021   -0.0041    0.0020 C.3       1 <0>         0.1122
      3 H1         -1.0205   -0.3814    0.0098 H         1 <0>         0.0491
      4 C3          0.7182   -0.4975   -1.2568 C.3       1 <0>         0.0974
      5 H2          1.7408   -0.1202   -1.2645 H         1 <0>         0.0869
      6 C4          0.7387   -2.0043   -1.2651 C.2       1 <0>         0.4929
      7 O1          0.0606   -2.6188   -2.0708 O.co2     1 <0>        -0.6960
      8 O2          1.4333   -2.6090   -0.4661 O.co2     1 <0>        -0.6802
      9 N1          0.0097   -0.0122   -2.4437 N.am      1 <0>        -0.7081
     10 C5          0.6691    0.1319   -3.6102 C.2       1 <0>         0.7117
     11 O3          1.8520   -0.1409   -3.6776 O.2       1 <0>        -0.5902
     12 N2          0.0172    0.5784   -4.7021 N.am      1 <0>        -0.7490
     13 C6          0.7340    0.7350   -5.9701 C.3       1 <0>         0.1642
     14 C7          1.4213    2.1016   -6.0020 C.3       1 <0>        -0.1264
     15 C8          2.1699    2.2651   -7.3263 C.3       1 <0>        -0.1095
     16 C9          1.1792    2.1653   -8.4879 C.3       1 <0>         0.1040
     17 C10         0.4919    0.7988   -8.4560 C.3       1 <0>        -0.1469
     18 C11        -0.2567    0.6352   -7.1317 C.3       1 <0>        -0.1234
     19 O4          1.8783    2.3181   -9.7248 O.3       1 <0>        -0.5691
     20 O5          0.6932   -0.4774    1.1597 O.3       1 <0>        -0.5332
     21 H3          1.0039    1.9031    0.0027 H         1 <0>         0.0613
     22 H4         -0.5459    1.8868   -0.8726 H         1 <0>         0.0608
     23 H5         -0.5289    1.8773    0.9072 H         1 <0>         0.0519
     24 H6         -0.9341    0.2054   -2.3899 H         1 <0>         0.3847
     25 H7         -0.9265    0.7960   -4.6484 H         1 <0>         0.3899
     26 H8          1.4835   -0.0509   -6.0633 H         1 <0>         0.0890
     27 H9          0.6718    2.8875   -5.9089 H         1 <0>         0.0619
     28 H10         2.1272    2.1727   -5.1745 H         1 <0>         0.0769
     29 H11         2.6596    3.2387   -7.3491 H         1 <0>         0.0693
     30 H12         2.9194    1.4792   -7.4195 H         1 <0>         0.0731
     31 H13         0.4297    2.9512   -8.3948 H         1 <0>         0.0541
     32 H14        -0.2140    0.7277   -9.2836 H         1 <0>         0.0670
     33 H15         1.2413    0.0128   -8.5492 H         1 <0>         0.0752
     34 H16        -0.7464   -0.3384   -7.1090 H         1 <0>         0.0746
     35 H17        -1.0062    1.4211   -7.0386 H         1 <0>         0.0666
     36 H18         1.3112    2.2656  -10.5063 H         1 <0>         0.3750
     37 H19         0.2938   -0.2021    1.9962 H         1 <0>         0.3628
@<TRIPOS>BOND
     1    1    2 1
     2    1   21 1
     3    1   22 1
     4    1   23 1
     5    2    3 1
     6    2    4 1
     7    2   20 1
     8    4    5 1
     9    4    6 1
    10    4    9 1
    11    6    7 2
    12    6    8 1
    13    9   10 am
    14    9   24 1
    15   10   11 2
    16   10   12 am
    17   12   13 1
    18   12   25 1
    19   13   18 1
    20   13   14 1
    21   13   26 1
    22   14   15 1
    23   14   27 1
    24   14   28 1
    25   15   16 1
    26   15   29 1
    27   15   30 1
    28   16   17 1
    29   16   19 1
    30   16   31 1
    31   17   18 1
    32   17   32 1
    33   17   33 1
    34   18   34 1
    35   18   35 1
    36   19   36 1
    37   20   37 1
@<TRIPOS>MOLECULE
ZINC42397397
   34    34     0     0     0
SMALL
USER_CHARGES

@<TRIPOS>ATOM
      1 C1         -0.0178    1.4608    0.0101 C.3       1 <0>         0.0904
      2 N1          0.0021   -0.0041    0.0020 N.am      1 <0>        -0.7404
      3 C2          0.6044   -0.6754    1.0035 C.2       1 <0>         0.4994
      4 O1          1.1299   -0.0668    1.9115 O.2       1 <0>        -0.5030
      5 C3          0.6248   -2.1822    0.9953 C.3       1 <0>         0.1432
      6 H1          0.8105   -2.5447   -0.0158 H         1 <0>         0.0918
      7 C4         -0.7240   -2.7282    1.5091 C.3       1 <0>        -0.1188
      8 C5         -0.3016   -3.9600    2.3526 C.3       1 <0>        -0.1274
      9 C6          1.0334   -3.4722    2.9686 C.3       1 <0>         0.1010
     10 N2          1.6723   -2.6730    1.9027 N.am      1 <0>        -0.6235
     11 C7          2.9929   -2.4331    1.7808 C.2       1 <0>         0.7292
     12 O2          3.4054   -1.7578    0.8577 O.2       1 <0>        -0.5866
     13 N3          3.8562   -2.9417    2.6821 N.am      1 <0>        -0.7018
     14 C8          5.2917   -2.6809    2.5496 C.3       1 <0>         0.0892
     15 H2          5.5591   -2.6483    1.4934 H         1 <0>         0.0910
     16 C9          6.0787   -3.7962    3.2407 C.3       1 <0>         0.0871
     17 O3          5.8167   -3.7642    4.6451 O.3       1 <0>        -0.5509
     18 C10         5.6236   -1.3591    3.1928 C.2       1 <0>         0.4991
     19 O4          4.9657   -0.9588    4.1380 O.co2     1 <0>        -0.6742
     20 O5          6.5500   -0.6899    2.7679 O.co2     1 <0>        -0.7058
     21 H3          1.0048    1.8381    0.0023 H         1 <0>         0.0595
     22 H4         -0.5450    1.8219   -0.8730 H         1 <0>         0.0709
     23 H5         -0.5280    1.8123    0.9069 H         1 <0>         0.0558
     24 H6         -0.4183   -0.4908   -0.7241 H         1 <0>         0.3968
     25 H7         -1.2274   -1.9887    2.1318 H         1 <0>         0.0801
     26 H8         -1.3599   -3.0304    0.6770 H         1 <0>         0.0892
     27 H9         -1.0361   -4.1719    3.1297 H         1 <0>         0.0861
     28 H10        -0.1436   -4.8323    1.7184 H         1 <0>         0.0787
     29 H11         0.8429   -2.8536    3.8456 H         1 <0>         0.0698
     30 H12         1.6625   -4.3223    3.2323 H         1 <0>         0.0749
     31 H13         3.5272   -3.4804    3.4186 H         1 <0>         0.3917
     32 H14         5.7731   -4.7610    2.8360 H         1 <0>         0.0370
     33 H15         7.1447   -3.6504    3.0665 H         1 <0>         0.0571
     34 H16         6.2838   -4.4454    5.1480 H         1 <0>         0.3632
@<TRIPOS>BOND
     1    1    2 1
     2    1   21 1
     3    1   22 1
     4    1   23 1
     5    2    3 am
     6    2   24 1
     7    3    4 2
     8    3    5 1
     9    5    6 1
    10    5   10 1
    11    5    7 1
    12    7    8 1
    13    7   25 1
    14    7   26 1
    15    8    9 1
    16    8   27 1
    17    8   28 1
    18    9   10 1
    19    9   29 1
    20    9   30 1
    21   10   11 am
    22   11   12 2
    23   11   13 am
    24   13   14 1
    25   13   31 1
    26   14   15 1
    27   14   16 1
    28   14   18 1
    29   16   17 1
    30   16   32 1
    31   16   33 1
    32   17   34 1
    33   18   19 2
    34   18   20 1
@<TRIPOS>MOLECULE
ZINC49229962
   40    40     0     0     0
SMALL
USER_CHARGES

@<TRIPOS>ATOM
      1 C1         -0.0187    1.5258    0.0104 C.3       1 <0>        -0.1494
      2 C2          0.0021   -0.0041    0.0020 C.3       1 <0>        -0.1368
      3 C3         -1.4333   -0.5336    0.0129 C.3       1 <0>         0.1180
      4 N1         -1.4134   -1.9985    0.0048 N.am      1 <0>        -0.7293
      5 C4         -2.5713   -2.6882    0.0122 C.2       1 <0>         0.5148
      6 O1         -3.6297   -2.0961    0.0255 O.2       1 <0>        -0.5374
      7 C5         -2.5509   -4.1950    0.0039 C.3       1 <0>         0.1495
      8 H1         -2.0407   -4.5465   -0.8929 H         1 <0>         0.1129
      9 C6         -1.8109   -4.7019    1.2434 C.3       1 <0>        -0.1599
     10 N2         -3.9253   -4.7021    0.0143 N.am      1 <0>        -0.7369
     11 C7         -4.1961   -5.9251   -0.4830 C.2       1 <0>         0.7357
     12 O2         -3.2998   -6.6076   -0.9403 O.2       1 <0>        -0.5740
     13 N3         -5.4606   -6.3917   -0.4734 N.am      1 <0>        -0.6019
     14 C8         -6.6385   -5.6706    0.0422 C.3       1 <0>         0.0726
     15 C9         -7.8437   -6.2946   -0.7047 C.3       1 <0>         0.0895
     16 H2         -7.9509   -5.8653   -1.7009 H         1 <0>         0.0720
     17 C10        -7.4227   -7.7859   -0.7842 C.3       1 <0>        -0.0962
     18 C11        -5.8945   -7.7014   -0.9813 C.3       1 <0>         0.0846
     19 H3         -5.6501   -7.7880   -2.0400 H         1 <0>         0.0703
     20 C12        -5.2187   -8.8018   -0.2045 C.2       1 <0>         0.4977
     21 O3         -4.5669   -8.5340    0.7904 O.co2     1 <0>        -0.6752
     22 O4         -5.3237   -9.9599   -0.5711 O.co2     1 <0>        -0.7011
     23 O5         -9.0483   -6.1411    0.0485 O.3       1 <0>        -0.5551
     24 H4          1.0039    1.9031    0.0027 H         1 <0>         0.0594
     25 H5         -0.5459    1.8868   -0.8726 H         1 <0>         0.0574
     26 H6         -0.5289    1.8773    0.9072 H         1 <0>         0.0575
     27 H7          0.5123   -0.3556   -0.8948 H         1 <0>         0.0696
     28 H8          0.5293   -0.3651    0.8851 H         1 <0>         0.0698
     29 H9         -1.9435   -0.1821    0.9097 H         1 <0>         0.0675
     30 H10        -1.9605   -0.1726   -0.8702 H         1 <0>         0.0670
     31 H11        -0.5669   -2.4720   -0.0058 H         1 <0>         0.4034
     32 H12        -2.3211   -4.3503    2.1402 H         1 <0>         0.0599
     33 H13        -1.7961   -5.7917    1.2374 H         1 <0>         0.0845
     34 H14        -0.7883   -4.3246    1.2357 H         1 <0>         0.0635
     35 H15        -4.6404   -4.1576    0.3791 H         1 <0>         0.3985
     36 H16        -6.7372   -5.8245    1.1167 H         1 <0>         0.0715
     37 H17        -6.5613   -4.6071   -0.1841 H         1 <0>         0.0669
     38 H18        -7.6676   -8.3056    0.1421 H         1 <0>         0.0830
     39 H19        -7.8929   -8.2744   -1.6377 H         1 <0>         0.0824
     40 H20        -9.2982   -5.2206    0.2075 H         1 <0>         0.3740
@<TRIPOS>BOND
     1    1    2 1
     2    1   24 1
     3    1   25 1
     4    1   26 1
     5    2    3 1
     6    2   27 1
     7    2   28 1
     8    3    4 1
     9    3   29 1
    10    3   30 1
    11    4    5 am
    12    4   31 1
    13    5    6 2
    14    5    7 1
    15    7    8 1
    16    7    9 1
    17    7   10 1
    18    9   32 1
    19    9   33 1
    20    9   34 1
    21   10   11 am
    22   10   35 1
    23   11   12 2
    24   11   13 am
    25   13   18 1
    26   13   14 1
    27   14   15 1
    28   14   36 1
    29   14   37 1
    30   15   16 1
    31   15   17 1
    32   15   23 1
    33   17   18 1
    34   17   38 1
    35   17   39 1
    36   18   19 1
    37   18   20 1
    38   20   21 2
    39   20   22 1
    40   23   40 1
@<TRIPOS>MOLECULE
ZINC04064392
   34    34     0     0     0
SMALL
USER_CHARGES
3-[(1-carboxy-2-methyl-propyl)carbamoylamino]benzoic acid
@<TRIPOS>ATOM
      1 C1         -0.0303    1.0823    0.0113 C.3       1 <0>        -0.1330
      2 C2         -0.7372    1.5767    1.2750 C.3       1 <0>        -0.0838
      3 H1         -1.7593    1.1983    1.2910 H         1 <0>         0.0543
      4 C3         -0.7596    3.1065    1.2815 C.3       1 <0>        -0.1528
      5 C4          0.0128    1.0723    2.5094 C.3       1 <0>         0.1222
      6 H2          1.0349    1.4506    2.4933 H         1 <0>         0.0896
      7 C5         -0.6836    1.5591    3.7540 C.2       1 <0>         0.4677
      8 O1         -1.1174    0.7641    4.5538 O.co2     1 <0>        -0.6385
      9 N1          0.0342   -0.3926    2.5031 N.am      1 <0>        -0.7172
     10 C6          0.9883   -1.0497    1.8145 C.2       1 <0>         0.6941
     11 O2          1.8314   -0.4267    1.1984 O.2       1 <0>        -0.5654
     12 N2          1.0080   -2.3973    1.8087 N.am      1 <0>        -0.6908
     13 C7          1.9386   -3.0803    1.0169 C.ar      1 <0>         0.1482
     14 C8          1.5906   -4.2860    0.4195 C.ar      1 <0>        -0.1560
     15 C9          2.5037   -4.9617   -0.3680 C.ar      1 <0>        -0.1270
     16 C10         3.7711   -4.4495   -0.5574 C.ar      1 <0>        -0.0998
     17 C11         4.1326   -3.2417    0.0429 C.ar      1 <0>        -0.1010
     18 C12         3.2085   -2.5570    0.8332 C.ar      1 <0>        -0.0818
     19 C13         5.4888   -2.6910   -0.1576 C.2       1 <0>         0.4911
     20 O3          5.8012   -1.6404    0.3660 O.co2     1 <0>        -0.6236
     21 H3         -0.0144   -0.0075    0.0067 H         1 <0>         0.0477
     22 H4          0.9918    1.4607   -0.0048 H         1 <0>         0.0618
     23 H5         -0.5646    1.4417   -0.8681 H         1 <0>         0.0332
     24 H6         -1.2939    3.4658    0.4021 H         1 <0>         0.0294
     25 H7         -1.2632    3.4586    2.1817 H         1 <0>         0.1022
     26 H8          0.2625    3.4848    1.2654 H         1 <0>         0.0448
     27 H9         -0.6384   -0.8896    2.9946 H         1 <0>         0.3973
     28 H10         0.3773   -2.8939    2.3532 H         1 <0>         0.3990
     29 H11         0.6017   -4.6942    0.5676 H         1 <0>         0.1132
     30 H12         2.2259   -5.8960   -0.8331 H         1 <0>         0.1148
     31 H13         4.4833   -4.9828   -1.1695 H         1 <0>         0.1262
     32 H14         3.4821   -1.6222    1.2999 H         1 <0>         0.1478
     33 O4         -0.8218    2.8760    3.9742 O.co2     1 <0>        -0.7486
     34 O5          6.3790   -3.3540   -0.9209 O.co2     1 <0>        -0.7652
@<TRIPOS>BOND
     1    1    2 1
     2    1   21 1
     3    1   22 1
     4    1   23 1
     5    2    3 1
     6    2    4 1
     7    2    5 1
     8    4   24 1
     9    4   25 1
    10    4   26 1
    11    5    6 1
    12    5    7 1
    13    5    9 1
    14    7    8 2
    15    7   33 1
    16    9   10 am
    17    9   27 1
    18   10   11 2
    19   10   12 am
    20   12   13 1
    21   12   28 1
    22   13   18 ar
    23   13   14 ar
    24   14   15 ar
    25   14   29 1
    26   15   16 ar
    27   15   30 1
    28   16   17 ar
    29   16   31 1
    30   17   18 ar
    31   17   19 1
    32   18   32 1
    33   19   20 2
    34   19   34 1
@<TRIPOS>MOLECULE
ZINC12397504
   35    35     0     0     0
SMALL
USER_CHARGES
5-[[(1R)-1-carboxy-3-methyl-butyl]carbamoyl]-1-methyl-pyrazole-4-carboxylic acid
@<TRIPOS>ATOM
      1 C1         -0.3971    5.6357    0.2457 C.3       1 <0>        -0.1383
      2 C2          0.5105    5.0524    1.3305 C.3       1 <0>        -0.1007
      3 C3          0.0209    5.5105    2.7058 C.3       1 <0>        -0.1391
      4 C4          0.4737    3.5245    1.2590 C.3       1 <0>        -0.0988
      5 C5          1.1015    3.0602   -0.0567 C.3       1 <0>         0.1059
      6 H1          0.6001    3.5501   -0.8914 H         1 <0>         0.0933
      7 C6          0.9498    1.5665   -0.1862 C.2       1 <0>         0.4636
      8 O1          1.9295    0.8655   -0.2790 O.co2     1 <0>        -0.6352
      9 N1          2.5243    3.4094   -0.0688 N.am      1 <0>        -0.6833
     10 C7          3.1674    3.5756   -1.2415 C.2       1 <0>         0.6131
     11 O2          2.5929    3.3449   -2.2879 O.2       1 <0>        -0.5281
     12 C8          4.5681    4.0372   -1.2555 C.2       1 <0>         0.0739
     13 C9          5.0054    5.3579   -1.3487 C.2       1 <0>        -0.2237
     14 C10         6.4107    5.3326   -1.3231 C.2       1 <0>         0.0775
     15 N2          6.8012    4.0885   -1.2301 N.2       1 <0>        -0.3172
     16 N3          5.6772    3.2561   -1.1859 N.pl3     1 <0>        -0.3576
     17 C11         5.6938    1.7948   -1.0833 C.3       1 <0>         0.0998
     18 C12         4.1522    6.5583   -1.4517 C.2       1 <0>         0.5200
     19 O3          2.9428    6.4449   -1.4608 O.co2     1 <0>        -0.6175
     20 H2         -1.4187    5.2892    0.4017 H         1 <0>         0.0436
     21 H3         -0.3708    6.7242    0.2966 H         1 <0>         0.0474
     22 H4         -0.0483    5.3093   -0.7341 H         1 <0>         0.0637
     23 H5          1.5321    5.3989    1.1746 H         1 <0>         0.0772
     24 H6          0.7163    5.1675    3.4718 H         1 <0>         0.0464
     25 H7         -0.0355    6.5988    2.7273 H         1 <0>         0.0485
     26 H8         -0.9669    5.0916    2.8979 H         1 <0>         0.0483
     27 H9         -0.5604    3.1833    1.3085 H         1 <0>         0.0813
     28 H10         1.0341    3.1080    2.0960 H         1 <0>         0.0542
     29 H11         3.0034    3.5210    0.7671 H         1 <0>         0.3891
     30 H12         7.0585    6.1952   -1.3756 H         1 <0>         0.1878
     31 H13         5.7976    1.3618   -2.0782 H         1 <0>         0.0697
     32 H14         6.5338    1.4837   -0.4622 H         1 <0>         0.0821
     33 H15         4.7624    1.4516   -0.6330 H         1 <0>         0.0993
     34 O4         -0.2738    1.0147   -0.1983 O.co2     1 <0>        -0.7749
     35 O5          4.7150    7.7795   -1.5356 O.co2     1 <0>        -0.7711
@<TRIPOS>BOND
     1    1    2 1
     2    1   20 1
     3    1   21 1
     4    1   22 1
     5    2    3 1
     6    2    4 1
     7    2   23 1
     8    3   24 1
     9    3   25 1
    10    3   26 1
    11    4    5 1
    12    4   27 1
    13    4   28 1
    14    5    6 1
    15    5    7 1
    16    5    9 1
    17    7    8 2
    18    7   34 1
    19    9   10 am
    20    9   29 1
    21   10   11 2
    22   10   12 1
    23   12   16 1
    24   12   13 2
    25   13   14 1
    26   13   18 1
    27   14   15 2
    28   14   30 1
    29   15   16 1
    30   16   17 1
    31   17   31 1
    32   17   32 1
    33   17   33 1
    34   18   19 2
    35   18   35 1
@<TRIPOS>MOLECULE
ZINC28238802
   44    45     0     0     0
SMALL
USER_CHARGES
2-[2-[carboxymethyl-(2-hydroxyphenyl)amino]ethyl-(2-hydroxyphenyl)amino]acetic acid
@<TRIPOS>ATOM
      1 C1         -2.6638    2.8435    7.6461 C.ar      1 <0>        -0.1787
      2 C2         -2.8297    2.0394    8.7585 C.ar      1 <0>        -0.0928
      3 C3         -2.9557    0.6699    8.6138 C.ar      1 <0>        -0.1835
      4 C4         -2.9160    0.0999    7.3521 C.ar      1 <0>         0.2324
      5 C5         -2.7493    0.9094    6.2306 C.ar      1 <0>         0.0318
      6 C6         -2.6182    2.2819    6.3839 C.ar      1 <0>        -0.1138
      7 N1         -2.7084    0.3389    4.9532 N.pl3     1 <0>        -0.4866
      8 C7         -1.4314    0.6291    4.2876 C.3       1 <0>         0.0815
      9 C8         -1.3198   -0.2074    3.0114 C.3       1 <0>         0.0723
     10 N2          0.0081   -0.0140    2.4138 N.pl3     1 <0>        -0.4698
     11 C9          0.3328   -1.1070    1.4875 C.3       1 <0>         0.0273
     12 C10         0.6230   -2.3607    2.2719 C.2       1 <0>         0.4664
     13 O1          0.6678   -2.3215    3.4787 O.co2     1 <0>        -0.6079
     14 O2          0.8317   -3.5208    1.6298 O.co2     1 <0>        -0.7853
     15 C11         0.0942    1.2279    1.7740 C.ar      1 <0>         0.0679
     16 C12        -0.7646    1.5324    0.7280 C.ar      1 <0>        -0.1114
     17 C13        -0.6773    2.7593    0.0975 C.ar      1 <0>        -0.1578
     18 C14         0.2641    3.6853    0.5070 C.ar      1 <0>        -0.0960
     19 C15         1.1200    3.3907    1.5524 C.ar      1 <0>        -0.2205
     20 C16         1.0429    2.1614    2.1857 C.ar      1 <0>         0.1750
     21 O3          1.8876    1.8683    3.2107 O.3       1 <0>        -0.4753
     22 C17        -3.8425    0.7930    4.1373 C.3       1 <0>         0.0185
     23 C18        -5.1265    0.2661    4.7244 C.2       1 <0>         0.4668
     24 O4         -5.0997   -0.4176    5.7203 O.co2     1 <0>        -0.6128
     25 O5         -6.3001    0.5563    4.1409 O.co2     1 <0>        -0.7841
     26 O6         -3.0390   -1.2470    7.2085 O.3       1 <0>        -0.4957
     27 H1         -2.5654    3.9125    7.7640 H         1 <0>         0.1074
     28 H2         -2.8606    2.4820    9.7431 H         1 <0>         0.1135
     29 H3         -3.0849    0.0447    9.4849 H         1 <0>         0.1188
     30 H4         -2.4844    2.9119    5.5169 H         1 <0>         0.1078
     31 H5         -1.3864    1.6977    4.0307 H         1 <0>         0.0196
     32 H6         -0.6004    0.3792    4.9636 H         1 <0>         0.0844
     33 H7         -1.4604   -1.2705    3.2564 H         1 <0>         0.0962
     34 H8         -2.0934    0.1095    2.2964 H         1 <0>         0.0269
     35 H9         -0.5201   -1.2839    0.8158 H         1 <0>         0.0364
     36 H10         1.2170   -0.8334    0.8931 H         1 <0>         0.0704
     37 H11        -1.5014    0.8111    0.4066 H         1 <0>         0.1244
     38 H12        -1.3464    2.9953   -0.7167 H         1 <0>         0.1164
     39 H13         0.3285    4.6429    0.0117 H         1 <0>         0.1155
     40 H14         1.8513    4.1180    1.8727 H         1 <0>         0.1211
     41 H15         2.6362    2.6063    3.5347 H         1 <0>         0.4112
     42 H16        -3.8687    1.8926    4.1256 H         1 <0>         0.0341
     43 H17        -3.7282    0.4180    3.1095 H         1 <0>         0.0799
     44 H18        -3.0073   -1.6984    6.2059 H         1 <0>         0.4481
@<TRIPOS>BOND
     1    1    6 ar
     2    1    2 ar
     3    1   27 1
     4    2    3 ar
     5    2   28 1
     6    3    4 ar
     7    3   29 1
     8    4    5 ar
     9    4   26 1
    10    5    6 ar
    11    5    7 1
    12    6   30 1
    13    7    8 1
    14    7   22 1
    15    8    9 1
    16    8   31 1
    17    8   32 1
    18    9   10 1
    19    9   33 1
    20    9   34 1
    21   10   11 1
    22   10   15 1
    23   11   12 1
    24   11   35 1
    25   11   36 1
    26   12   13 2
    27   12   14 1
    28   15   20 ar
    29   15   16 ar
    30   16   17 ar
    31   16   37 1
    32   17   18 ar
    33   17   38 1
    34   18   19 ar
    35   18   39 1
    36   19   20 ar
    37   19   40 1
    38   20   21 1
    39   21   41 1
    40   22   23 1
    41   22   42 1
    42   22   43 1
    43   23   24 2
    44   23   25 1
    45   26   44 1
@<TRIPOS>MOLECULE
ZINC41018332
   24    25     0     0     0
SMALL
USER_CHARGES

@<TRIPOS>ATOM
      1 C1         -0.0162    1.3453    0.0094 C.2       1 <0>         0.1708
      2 C2          1.2668    1.7752   -0.0005 C.2       1 <0>        -0.7591
      3 C3          2.0976    0.6501   -0.0145 C.2       1 <0>         0.1367
      4 N1          1.3406   -0.4170   -0.0130 N.2       1 <0>        -0.3087
      5 N2          0.0021   -0.0041    0.0020 N.pl3     1 <0>        -0.4769
      6 H1         -0.7745   -0.5853    0.0063 H         1 <0>         0.4366
      7 S1          1.7971    3.4555    0.0029 S.o2      1 <0>         2.6671
      8 O1          3.1017    3.4708   -0.5602 O.2       1 <0>        -1.0094
      9 O2          0.7266    4.2203   -0.5340 O.2       1 <0>        -1.0149
     10 N3          1.9593    3.9145    1.5858 N.2       1 <0>        -1.0332
     11 C4          2.3702    5.2055    1.8964 C.2       1 <0>         0.4231
     12 N4          2.6702    6.2038    1.0890 N.2       1 <0>        -0.4546
     13 N5          3.0591    7.4151    1.6128 N.2       1 <0>        -0.2856
     14 C5          3.1300    7.5720    2.9207 C.2       1 <0>         0.0116
     15 S2          2.6253    5.9580    3.4962 S.3       1 <0>        -0.0958
     16 S3          3.5929    8.9949    3.8511 S.3       1 <0>         0.0472
     17 C6          3.9640   10.2433    2.5884 C.3       1 <0>        -0.1677
     18 C7          4.3790   11.5277    3.2586 C.2       1 <0>         0.5175
     19 O3          4.4206   11.5947    4.4752 O.co2     1 <0>        -0.6787
     20 O4          4.6731   12.4998    2.5841 O.co2     1 <0>        -0.6880
     21 H2         -0.8970    1.9700    0.0252 H         1 <0>         0.1922
     22 H3          3.1775    0.6604   -0.0253 H         1 <0>         0.1960
     23 H4          4.7743    9.8870    1.9524 H         1 <0>         0.0871
     24 H5          3.0765   10.4207    1.9810 H         1 <0>         0.0869
@<TRIPOS>BOND
     1    1    5 1
     2    1    2 2
     3    1   21 1
     4    2    3 1
     5    2    7 1
     6    3    4 2
     7    3   22 1
     8    4    5 1
     9    5    6 1
    10    7    8 2
    11    7    9 2
    12    7   10 1
    13   10   11 1
    14   11   15 1
    15   11   12 2
    16   12   13 1
    17   13   14 2
    18   14   15 1
    19   14   16 1
    20   16   17 1
    21   17   18 1
    22   17   23 1
    23   17   24 1
    24   18   19 2
    25   18   20 1
@<TRIPOS>MOLECULE
ZINC37448609
   38    38     0     0     0
SMALL
USER_CHARGES

@<TRIPOS>ATOM
      1 C1         -0.0187    1.5258    0.0104 C.3       1 <0>        -0.1454
      2 C2          0.0021   -0.0041    0.0020 C.3       1 <0>        -0.1254
      3 C3          0.7182   -0.4975   -1.2568 C.3       1 <0>        -0.0794
      4 H1          1.7103   -0.0491   -1.3098 H         1 <0>         0.0629
      5 C4         -0.0892   -0.0968   -2.4931 C.3       1 <0>        -0.1433
      6 C5          0.8493   -2.0210   -1.2049 C.3       1 <0>         0.0798
      7 H2         -0.1428   -2.4694   -1.1520 H         1 <0>         0.0742
      8 C6          1.6446   -2.4156    0.0128 C.2       1 <0>         0.4901
      9 O1          1.1635   -2.2813    1.1250 O.co2     1 <0>        -0.7074
     10 O2          2.7691   -2.8692   -0.1143 O.co2     1 <0>        -0.6681
     11 N1          1.5350   -2.4934   -2.4103 N.am      1 <0>        -0.6889
     12 C7          1.3371   -3.7526   -2.8484 C.2       1 <0>         0.5971
     13 O3          0.5892   -4.4966   -2.2430 O.2       1 <0>        -0.5569
     14 C8          2.0261   -4.2273   -4.0595 C.ar      1 <0>        -0.3390
     15 C9          1.4434   -4.0812   -5.3221 C.ar      1 <0>         0.2416
     16 N2          2.0945   -4.5206   -6.3843 N.ar      1 <0>        -0.6002
     17 C10         3.2842   -5.0942   -6.2709 C.ar      1 <0>         0.5650
     18 O4          3.9113   -5.5280   -7.3885 O.3       1 <0>        -0.6946
     19 N3          3.8779   -5.2555   -5.1001 N.ar      1 <0>        -0.6017
     20 C11         3.2973   -4.8381   -3.9797 C.ar      1 <0>         0.2282
     21 S1          4.0953   -5.0490   -2.4230 S.3       1 <0>        -0.0275
     22 C12         5.6628   -5.8612   -2.8399 C.3       1 <0>        -0.1459
     23 C13         0.0914   -3.4319   -5.4692 C.3       1 <0>        -0.0985
     24 H3          1.0039    1.9031    0.0027 H         1 <0>         0.0464
     25 H4         -0.5459    1.8868   -0.8726 H         1 <0>         0.0446
     26 H5         -0.5289    1.8773    0.9072 H         1 <0>         0.0436
     27 H6          0.5293   -0.3651    0.8851 H         1 <0>         0.1023
     28 H7         -1.0205   -0.3814    0.0098 H         1 <0>         0.0517
     29 H8          0.4210   -0.4484   -3.3899 H         1 <0>         0.0517
     30 H9         -1.0813   -0.5452   -2.4401 H         1 <0>         0.0490
     31 H10        -0.1826    0.9885   -2.5300 H         1 <0>         0.0464
     32 H11         2.1314   -1.9001   -2.8930 H         1 <0>         0.3875
     33 H12         6.2351   -6.0359   -1.9288 H         1 <0>         0.0907
     34 H13         5.4596   -6.8136   -3.3295 H         1 <0>         0.0769
     35 H14         6.2357   -5.2222   -3.5119 H         1 <0>         0.0781
     36 H15         0.2171   -2.3580   -5.6069 H         1 <0>         0.0721
     37 H16        -0.4210   -3.8517   -6.3348 H         1 <0>         0.0716
     38 H17        -0.4997   -3.6165   -4.5722 H         1 <0>         0.0707
@<TRIPOS>BOND
     1    1    2 1
     2    1   24 1
     3    1   25 1
     4    1   26 1
     5    2    3 1
     6    2   27 1
     7    2   28 1
     8    3    4 1
     9    3    5 1
    10    3    6 1
    11    5   29 1
    12    5   30 1
    13    5   31 1
    14    6    7 1
    15    6    8 1
    16    6   11 1
    17    8    9 2
    18    8   10 1
    19   11   12 am
    20   11   32 1
    21   12   13 2
    22   12   14 1
    23   14   15 ar
    24   14   20 ar
    25   15   16 ar
    26   15   23 1
    27   16   17 ar
    28   17   18 1
    29   17   19 ar
    30   19   20 ar
    31   20   21 1
    32   21   22 1
    33   22   33 1
    34   22   34 1
    35   22   35 1
    36   23   36 1
    37   23   37 1
    38   23   38 1
@<TRIPOS>MOLECULE
ZINC03883776
   17    17     0     0     0
SMALL
USER_CHARGES
thiazolidine-2,4-dicarboxylic acid
@<TRIPOS>ATOM
      1 C1          2.7473    5.2430   -0.8271 C.3       1 <0>        -0.0566
      2 C2          1.6160    4.7943   -1.7842 C.3       1 <0>        -0.0343
      3 H1          2.0581    4.5408   -2.7478 H         1 <0>         0.1432
      4 C3          1.2350    3.0943    0.0069 C.3       1 <0>         0.0389
      5 H2          0.6134    3.5044    0.8028 H         1 <0>         0.1510
      6 S1          2.9772    3.6906    0.1507 S.3       1 <0>        -0.1936
      7 C4          1.1765    1.5884   -0.0006 C.2       1 <0>         0.4619
      8 O1          2.1986    0.9442   -0.0139 O.co2     1 <0>        -0.5659
      9 C5          0.6736    5.9526   -1.9874 C.2       1 <0>         0.4614
     10 O2         -0.4136    5.9466   -1.4602 O.co2     1 <0>        -0.6080
     11 H3          3.6518    5.5024   -1.3773 H         1 <0>         0.1411
     12 H4          2.4240    6.0668   -0.1907 H         1 <0>         0.1114
     13 N1          0.8104    3.6307   -1.3391 N.4       1 <0>        -0.4969
     14 H5          0.9072    2.8817   -2.0347 H         1 <0>         0.4283
     15 H6         -0.1735    3.9184   -1.2806 H         1 <0>         0.4346
     16 O3         -0.0110    0.9628    0.0073 O.co2     1 <0>        -0.7117
     17 O4          1.0421    6.9911   -2.7539 O.co2     1 <0>        -0.7048
@<TRIPOS>BOND
     1    1    6 1
     2    1    2 1
     3    1   11 1
     4    1   12 1
     5    2    3 1
     6    2    9 1
     7    2   13 1
     8    4    5 1
     9    4    6 1
    10    4    7 1
    11    4   13 1
    12    7    8 2
    13    7   16 1
    14    9   10 2
    15    9   17 1
    16   13   14 1
    17   13   15 1
@<TRIPOS>MOLECULE
ZINC05454352
   14    14     0     0     0
SMALL
USER_CHARGES
(4-amino-5-sulfanyl-1,2,4-triazol-3-yl)methanol
@<TRIPOS>ATOM
      1 C1          4.9966    2.3719   -1.4641 C.3       1 <0>         0.1932
      2 C2          3.7614    2.1305   -0.6353 C.2       1 <0>         0.0911
      3 N1          3.6967    2.1093    0.6659 N.2       1 <0>        -0.2786
      4 N2          2.4896    1.8813    1.0440 N.2       1 <0>        -0.3279
      5 C3          1.7138    1.7353   -0.0050 C.2       1 <0>         0.3506
      6 N3          2.5008    1.8931   -1.1095 N.pl3     1 <0>        -0.2429
      7 N4          2.1102    1.8274   -2.4168 N.3       1 <0>        -0.7656
      8 S1         -0.0170    1.4058    0.0098 S.3       1 <0>        -0.8192
      9 O1          5.1345    3.7715   -1.7171 O.3       1 <0>        -0.5940
     10 H1          5.8805    2.0090   -0.9191 H         1 <0>         0.0711
     11 H2          4.9082    1.8336   -2.4193 H         1 <0>         0.0478
     12 H3          1.0577    1.6282   -2.6670 H         1 <0>         0.4483
     13 H4          2.8481    1.9737   -3.2193 H         1 <0>         0.4220
     14 H5          5.9833    4.1421   -2.3106 H         1 <0>         0.4038
@<TRIPOS>BOND
     1    1    2 1
     2    1    9 1
     3    1   10 1
     4    1   11 1
     5    2    6 1
     6    2    3 2
     7    3    4 1
     8    4    5 2
     9    5    6 1
    10    5    8 1
    11    6    7 1
    12    7   12 1
    13    7   13 1
    14    9   14 1
@<TRIPOS>MOLECULE
ZINC00895164
   24    24     0     0     0
SMALL
USER_CHARGES

@<TRIPOS>ATOM
      1 C1         -0.0187    1.5258    0.0104 C.3       1 <0>        -0.0858
      2 C2          1.4167    2.0553   -0.0004 C.3       1 <0>         0.1249
      3 H1          1.4019    3.1452    0.0056 H         1 <0>         0.0543
      4 C3          2.1567    1.5485    1.2391 C.3       1 <0>         0.0417
      5 C4          2.1775    0.0187    1.2307 C.3       1 <0>         0.0830
      6 H2          2.6876   -0.3328    0.3339 H         1 <0>         0.0760
      7 C5          0.7421   -0.5109    1.2415 C.3       1 <0>        -0.1193
      8 C6          0.0021   -0.0041    0.0020 C.3       1 <0>         0.0725
      9 C7         -1.4117   -0.5257    0.0127 C.2       1 <0>         0.4778
     10 O1         -1.8097   -1.2271   -0.9017 O.co2     1 <0>        -0.6836
     11 O2         -2.1576   -0.2463    0.9358 O.co2     1 <0>        -0.6930
     12 O3          0.6709   -0.4649   -1.1737 O.3       1 <0>        -0.5311
     13 O4          2.8686   -0.4547    2.3884 O.3       1 <0>        -0.5673
     14 O5          3.4973    2.0431    1.2290 O.3       1 <0>        -0.5684
     15 O6          2.0856    1.5945   -1.1761 O.3       1 <0>        -0.5291
     16 H3         -0.5289    1.8773    0.9072 H         1 <0>         0.0925
     17 H4         -0.5459    1.8868   -0.8726 H         1 <0>         0.0785
     18 H5          1.6465    1.9000    2.1359 H         1 <0>         0.0675
     19 H6          0.7568   -1.6008    1.2355 H         1 <0>         0.0670
     20 H7          0.2319   -0.1594    2.1383 H         1 <0>         0.0784
     21 H8          0.7216   -1.4279   -1.2455 H         1 <0>         0.3616
     22 H9          3.7868   -0.1572    2.4473 H         1 <0>         0.3651
     23 H10         4.0265    1.7608    1.9875 H         1 <0>         0.3733
     24 H11         3.0025    1.8927   -1.2494 H         1 <0>         0.3636
@<TRIPOS>BOND
     1    1    8 1
     2    1    2 1
     3    1   16 1
     4    1   17 1
     5    2    3 1
     6    2    4 1
     7    2   15 1
     8    4    5 1
     9    4   14 1
    10    4   18 1
    11    5    6 1
    12    5    7 1
    13    5   13 1
    14    7    8 1
    15    7   19 1
    16    7   20 1
    17    8    9 1
    18    8   12 1
    19    9   10 2
    20    9   11 1
    21   12   21 1
    22   13   22 1
    23   14   23 1
    24   15   24 1
@<TRIPOS>MOLECULE
ZINC40524155
   28    28     0     0     0
SMALL
USER_CHARGES

@<TRIPOS>ATOM
      1 C1         -0.0169    1.4674    0.0090 C.3       1 <0>         0.0972
      2 C2          1.4309    1.9709   -0.0043 C.3       1 <0>         0.0489
      3 O1          2.1583    1.3402    1.0525 O.3       1 <0>        -0.3828
      4 C3          2.2549   -0.0809    0.9296 C.3       1 <0>         0.0499
      5 C4          0.8493   -0.6895    0.9907 C.3       1 <0>         0.0787
      6 N1          0.0033   -0.0039    0.0009 N.am      1 <0>        -0.6394
      7 C5         -0.7317   -0.7030   -0.8865 C.2       1 <0>         0.7075
      8 O2         -1.4935   -0.1229   -1.6358 O.2       1 <0>        -0.5882
      9 N2         -0.6222   -2.0451   -0.9434 N.am      1 <0>        -0.7056
     10 C6         -1.3355   -2.7949   -1.9803 C.3       1 <0>         0.0880
     11 H1         -1.3630   -2.2086   -2.8988 H         1 <0>         0.0911
     12 C7         -0.6127   -4.1180   -2.2414 C.3       1 <0>         0.0865
     13 O3         -0.6781   -4.9354   -1.0711 O.3       1 <0>        -0.5519
     14 C8         -2.7431   -3.0738   -1.5201 C.2       1 <0>         0.4999
     15 O4         -3.6437   -3.1697   -2.3363 O.co2     1 <0>        -0.7029
     16 O5         -2.9814   -3.2035   -0.3314 O.co2     1 <0>        -0.6787
     17 H2         -0.5209    1.8227    0.9078 H         1 <0>         0.0692
     18 H3         -0.5406    1.8323   -0.8746 H         1 <0>         0.1012
     19 H4          1.8927    1.7262   -0.9608 H         1 <0>         0.0542
     20 H5          1.4420    3.0512    0.1404 H         1 <0>         0.1040
     21 H6          2.7197   -0.3331   -0.0235 H         1 <0>         0.0544
     22 H7          2.8588   -0.4767    1.7461 H         1 <0>         0.1038
     23 H8          0.8992   -1.7530    0.7572 H         1 <0>         0.0882
     24 H9          0.4325   -0.5514    1.9884 H         1 <0>         0.0753
     25 H10        -0.0711   -2.5145   -0.2978 H         1 <0>         0.3917
     26 H11        -1.0909   -4.6353   -3.0731 H         1 <0>         0.0580
     27 H12         0.4303   -3.9196   -2.4882 H         1 <0>         0.0373
     28 H13        -0.2392   -5.7920   -1.1646 H         1 <0>         0.3644
@<TRIPOS>BOND
     1    1    6 1
     2    1    2 1
     3    1   17 1
     4    1   18 1
     5    2    3 1
     6    2   19 1
     7    2   20 1
     8    3    4 1
     9    4    5 1
    10    4   21 1
    11    4   22 1
    12    5    6 1
    13    5   23 1
    14    5   24 1
    15    6    7 am
    16    7    8 2
    17    7    9 am
    18    9   10 1
    19    9   25 1
    20   10   11 1
    21   10   12 1
    22   10   14 1
    23   12   13 1
    24   12   26 1
    25   12   27 1
    26   13   28 1
    27   14   15 2
    28   14   16 1
@<TRIPOS>MOLECULE
ZINC43704130
   24    24     0     0     0
SMALL
USER_CHARGES

@<TRIPOS>ATOM
      1 C1         -0.0179    1.4659    0.0101 C.3       1 <0>         0.0156
      2 C2          1.4204    1.9905   -0.0008 C.3       1 <0>         0.0578
      3 O1          2.1273    1.4524    1.1200 O.3       1 <0>        -0.3563
      4 C3          2.1669    0.0230    1.1434 C.3       1 <0>         0.0296
      5 H1          2.6811   -0.3415    0.2541 H         1 <0>         0.0593
      6 C4          0.7362   -0.5215    1.1659 C.3       1 <0>         0.0455
      7 N1          0.0021   -0.0041    0.0020 N.3       1 <0>        -0.5221
      8 C5         -1.3614   -0.5488   -0.0451 C.3       1 <0>         0.0327
      9 C6         -1.9997   -0.1917   -1.3627 C.2       1 <0>         0.5181
     10 O2         -1.3799    0.4532   -2.1818 O.2       1 <0>        -0.5238
     11 N2         -3.2594   -0.5888   -1.6308 N.am      1 <0>        -0.8611
     12 C7          2.9019   -0.4399    2.3749 C.2       1 <0>         0.5060
     13 O3          3.2707    0.3723    3.2060 O.co2     1 <0>        -0.6730
     14 O4          3.1276   -1.6266    2.5401 O.co2     1 <0>        -0.6915
     15 H2         -0.5269    1.8181    0.9073 H         1 <0>         0.0335
     16 H3         -0.5439    1.8276   -0.8734 H         1 <0>         0.0944
     17 H4          1.9129    1.6832   -0.9234 H         1 <0>         0.0509
     18 H5          1.4115    3.0786    0.0628 H         1 <0>         0.0885
     19 H6          0.7605   -1.6105    1.1262 H         1 <0>         0.0888
     20 H7          0.2392   -0.2011    2.0816 H         1 <0>         0.0392
     21 H8         -1.3231   -1.6332    0.0580 H         1 <0>         0.1059
     22 H9         -1.9496   -0.1269    0.7698 H         1 <0>         0.0628
     23 H10        -3.7552   -1.1045   -0.9757 H         1 <0>         0.3998
     24 H11        -3.6703   -0.3589   -2.4789 H         1 <0>         0.3994
@<TRIPOS>BOND
     1    1    7 1
     2    1    2 1
     3    1   15 1
     4    1   16 1
     5    2    3 1
     6    2   17 1
     7    2   18 1
     8    3    4 1
     9    4    5 1
    10    4    6 1
    11    4   12 1
    12    6    7 1
    13    6   19 1
    14    6   20 1
    15    7    8 1
    16    8    9 1
    17    8   21 1
    18    8   22 1
    19    9   10 2
    20    9   11 am
    21   11   23 1
    22   11   24 1
    23   12   13 2
    24   12   14 1
@<TRIPOS>MOLECULE
ZINC00166749
   18    18     0     0     0
SMALL
USER_CHARGES
hydrazino-pyrazin-2-yl-methanimine
@<TRIPOS>ATOM
      1 C1          1.9732    1.8315   -0.0030 C.ar      1 <0>         0.1226
      2 C2          1.0325    2.8499    0.0121 C.ar      1 <0>         0.0791
      3 N1         -0.2544    2.5619    0.0220 N.ar      1 <0>        -0.4045
      4 C3         -0.6501    1.2924    0.0122 C.ar      1 <0>         0.0145
      5 C4          0.2984    0.2711    0.0024 C.ar      1 <0>         0.1199
      6 N2          1.5853    0.5684   -0.0075 N.ar      1 <0>        -0.4187
      7 C5         -2.0959    0.9642    0.0176 C.cat     1 <0>         0.5960
      8 N3         -3.0318    1.9753    0.0273 N.pl3     1 <0>        -0.4737
      9 N4         -4.3639    1.6730    0.0324 N.3       1 <0>        -0.6075
     10 H1          3.0261    2.0714   -0.0115 H         1 <0>         0.1997
     11 H2          1.3541    3.8809    0.0153 H         1 <0>         0.2007
     12 H3         -0.0182   -0.7615   -0.0018 H         1 <0>         0.1807
     13 H4         -3.4040   -0.5946    0.0161 H         1 <0>         0.4527
     14 H5         -2.7448    2.9018    0.0306 H         1 <0>         0.4535
     15 H6         -4.5962    1.0758    0.8118 H         1 <0>         0.3671
     16 H7         -4.9250    2.5115    0.0393 H         1 <0>         0.4031
     17 N5         -2.4220   -0.3180    0.0127 N.pl3     1 <0>        -0.7451
     18 H8         -1.6868   -1.0347    0.0054 H         1 <0>         0.4599
@<TRIPOS>BOND
     1    1    6 ar
     2    1    2 ar
     3    1   10 1
     4    2    3 ar
     5    2   11 1
     6    3    4 ar
     7    4    5 ar
     8    4    7 1
     9    5    6 ar
    10    5   12 1
    11    7    8 1
    12    7   17 2
    13    8    9 1
    14    8   14 1
    15    9   15 1
    16    9   16 1
    17   13   17 1
    18   17   18 1
@<TRIPOS>MOLECULE
ZINC19685612
   36    36     0     0     0
SMALL
USER_CHARGES
N-[(2S)-3-amino-2-hydroxy-propyl]-N,3,5-trimethyl-1H-pyrazole-4-sulfonamide
@<TRIPOS>ATOM
      1 C1         -8.1505    1.3856   -3.3381 C.3       1 <0>        -0.1460
      2 C2         -7.3450    2.6560   -3.4288 C.2       1 <0>         0.2131
      3 C3         -6.2648    2.9712   -2.6772 C.2       1 <0>        -0.8316
      4 C4         -5.8194    4.2366   -3.0731 C.2       1 <0>         0.1539
      5 N1         -6.5983    4.6616   -4.0347 N.2       1 <0>        -0.2702
      6 N2         -7.5715    3.6829   -4.2745 N.pl3     1 <0>        -0.4668
      7 H1         -8.4111    3.6364   -4.9837 H         1 <0>         0.4782
      8 C5         -4.6429    4.9800   -2.4951 C.3       1 <0>        -0.0938
      9 S1         -5.5502    1.9680   -1.4172 S.o2      1 <0>         2.7230
     10 O1         -6.5763    1.0976   -0.9603 O.2       1 <0>        -0.9500
     11 O2         -4.8525    2.8468   -0.5454 O.2       1 <0>        -0.9610
     12 N3         -4.4071    1.0131   -2.1410 N.pl3     1 <0>        -0.9956
     13 C6         -4.7796   -0.3002   -2.6725 C.3       1 <0>         0.0898
     14 C7         -3.0234    1.4818   -2.2498 C.3       1 <0>         0.1298
     15 C8         -2.2069    0.9381   -1.0756 C.3       1 <0>         0.0688
     16 H2         -2.6983    1.1521   -0.1150 H         1 <0>         0.0874
     17 C9         -0.7955    1.5269   -1.1198 C.3       1 <0>        -0.0377
     18 N4         -0.0116    1.0048    0.0076 N.4       1 <0>        -0.6860
     19 O3         -2.1320   -0.4861   -1.1665 O.3       1 <0>        -0.5723
     20 H3         -7.7264    0.7376   -2.5570 H         1 <0>         0.1197
     21 H4         -8.1200    0.8623   -4.3052 H         1 <0>         0.0942
     22 H5         -9.1930    1.6297   -3.0860 H         1 <0>         0.0999
     23 H6         -4.5350    5.9488   -3.0048 H         1 <0>         0.0859
     24 H7         -3.7279    4.3865   -2.6383 H         1 <0>         0.0760
     25 H8         -4.8070    5.1473   -1.4204 H         1 <0>         0.1024
     26 H9         -3.8940   -0.7826   -3.1117 H         1 <0>         0.0878
     27 H10        -5.5517   -0.1770   -3.4463 H         1 <0>         0.0601
     28 H11        -5.1729   -0.9270   -1.8586 H         1 <0>         0.0734
     29 H12        -2.5887    1.1249   -3.1951 H         1 <0>         0.1005
     30 H13        -3.0061    2.5815   -2.2304 H         1 <0>         0.1073
     31 H14        -0.3100    1.2449   -2.0657 H         1 <0>         0.1405
     32 H15        -0.8532    2.6232   -1.0498 H         1 <0>         0.1437
     33 H16         1.0032    1.4281   -0.0242 H         1 <0>         0.4657
     34 H17         0.0461   -0.0915   -0.0624 H         1 <0>         0.4502
     35 H18        -1.5816   -1.0577   -0.4047 H         1 <0>         0.4006
     36 H19        -0.4971    1.2868    0.9535 H         1 <0>         0.4591
@<TRIPOS>BOND
     1    1    2 1
     2    1   20 1
     3    1   21 1
     4    1   22 1
     5    2    6 1
     6    2    3 2
     7    3    4 1
     8    3    9 1
     9    4    5 2
    10    4    8 1
    11    5    6 1
    12    6    7 1
    13    8   23 1
    14    8   24 1
    15    8   25 1
    16    9   10 2
    17    9   11 2
    18    9   12 1
    19   12   13 1
    20   12   14 1
    21   13   26 1
    22   13   27 1
    23   13   28 1
    24   14   15 1
    25   14   29 1
    26   14   30 1
    27   15   16 1
    28   15   17 1
    29   15   19 1
    30   17   18 1
    31   17   31 1
    32   17   32 1
    33   18   33 1
    34   18   34 1
    35   18   36 1
    36   19   35 1
@<TRIPOS>MOLECULE
ZINC39048337
   22    22     0     0     0
SMALL
USER_CHARGES

@<TRIPOS>ATOM
      1 C1         -0.0173    1.4248    0.0099 C.3       1 <0>         0.0483
      2 C2          1.4195    1.9533   -0.0010 C.3       1 <0>         0.0036
      3 H1          1.9348    1.6259    0.9019 H         1 <0>         0.1649
      4 C3          2.1472    1.4060   -1.2327 C.3       1 <0>         0.0964
      5 H2          3.1869    1.7330   -1.2172 H         1 <0>         0.0956
      6 C4          2.0910   -0.1245   -1.2072 C.3       1 <0>         0.0611
      7 H3          2.5584   -0.5213   -2.1085 H         1 <0>         0.0974
      8 C5          0.6283   -0.5728   -1.1498 C.3       1 <0>         0.2215
      9 H4          0.5834   -1.6601   -1.0883 H         1 <0>         0.1171
     10 O1          0.0021   -0.0041    0.0020 O.3       1 <0>        -0.3639
     11 O2         -0.0513   -0.1337   -2.3276 O.3       1 <0>        -0.5589
     12 O3          2.7857   -0.6088   -0.0562 O.3       1 <0>        -0.5477
     13 O4          1.5117    1.8897   -2.4177 O.3       1 <0>        -0.5487
     14 N1          1.4022    3.4213   -0.0515 N.4       1 <0>        -0.6261
     15 H5         -0.5272    1.7765    0.9068 H         1 <0>         0.1175
     16 H6         -0.5442    1.7861   -0.8733 H         1 <0>         0.0912
     17 H7         -0.9851   -0.3832   -2.3591 H         1 <0>         0.3974
     18 H8          2.7902   -1.5725    0.0239 H         1 <0>         0.4031
     19 H9          1.9216    1.5818   -3.2376 H         1 <0>         0.4115
     20 H10         0.9184    3.7800    0.7581 H         1 <0>         0.4385
     21 H11         2.3494    3.7688   -0.0586 H         1 <0>         0.4390
     22 H12         0.9268    3.7235   -0.8886 H         1 <0>         0.4413
@<TRIPOS>BOND
     1    1   10 1
     2    1    2 1
     3    1   15 1
     4    1   16 1
     5    2    3 1
     6    2    4 1
     7    2   14 1
     8    4    5 1
     9    4    6 1
    10    4   13 1
    11    6    7 1
    12    6    8 1
    13    6   12 1
    14    8    9 1
    15    8   10 1
    16    8   11 1
    17   11   17 1
    18   12   18 1
    19   13   19 1
    20   14   20 1
    21   14   21 1
    22   14   22 1
@<TRIPOS>MOLECULE
ZINC43423680
   37    38     0     0     0
SMALL
USER_CHARGES

@<TRIPOS>ATOM
      1 C1         -0.0207    1.6414   -0.0018 C.3       1 <0>        -0.1246
      2 C2          1.4817    2.0326    0.0753 C.3       1 <0>        -0.1141
      3 C3          2.1627    0.7042    0.4147 C.3       1 <0>         0.0923
      4 H1          2.0129    0.4486    1.4636 H         1 <0>         0.1010
      5 C4          1.3935   -0.2779   -0.5146 C.3       1 <0>         0.0712
      6 H2          1.6830   -0.0854   -1.5477 H         1 <0>         0.0606
      7 C5         -0.0594    0.1250   -0.3244 C.3       1 <0>        -0.1148
      8 O1          1.7849   -1.5844   -0.1637 O.3       1 <0>        -0.3588
      9 C6          3.1632   -1.8243   -0.5029 C.3       1 <0>         0.0469
     10 C7          4.0975   -0.8211    0.1712 C.3       1 <0>         0.0542
     11 N1          3.5683    0.5763    0.0462 N.am      1 <0>        -0.5761
     12 C8          4.3113    1.6247   -0.3604 C.2       1 <0>         0.5146
     13 O2          3.7880    2.7038   -0.5451 O.2       1 <0>        -0.5087
     14 C9          5.7796    1.4581   -0.5837 C.2       1 <0>         0.5193
     15 O3          6.3225    0.4120   -0.2946 O.2       1 <0>        -0.4983
     16 N2          6.5008    2.4697   -1.1061 N.am      1 <0>        -0.7073
     17 C10         7.9401    2.3064   -1.3250 C.3       1 <0>         0.0900
     18 C11         8.5142    3.5927   -1.9225 C.3       1 <0>        -0.0206
     19 N3          9.9575    3.4289   -2.1420 N.4       1 <0>        -0.6311
     20 H3         -0.5071    1.8333    0.9545 H         1 <0>         0.0754
     21 H4         -0.5142    2.2052   -0.7934 H         1 <0>         0.0763
     22 H5          1.8317    2.4114   -0.8850 H         1 <0>         0.0919
     23 H6          1.6497    2.7651    0.8648 H         1 <0>         0.0767
     24 H7         -0.4995   -0.4272    0.5060 H         1 <0>         0.0827
     25 H8         -0.6242   -0.0527   -1.2395 H         1 <0>         0.0809
     26 H9          3.4364   -2.8312   -0.1873 H         1 <0>         0.1163
     27 H10         3.2811   -1.7484   -1.5838 H         1 <0>         0.0577
     28 H11         4.1948   -1.0745    1.2268 H         1 <0>         0.0861
     29 H12         5.0787   -0.8711   -0.3010 H         1 <0>         0.1317
     30 H13         6.0668    3.3059   -1.3372 H         1 <0>         0.4220
     31 H14         8.4307    2.0968   -0.3745 H         1 <0>         0.0965
     32 H15         8.1114    1.4783   -2.0128 H         1 <0>         0.0964
     33 H16         8.0237    3.8023   -2.8730 H         1 <0>         0.1443
     34 H17         8.3430    4.4208   -1.2347 H         1 <0>         0.1445
     35 H18        10.3361    4.2772   -2.5360 H         1 <0>         0.4459
     36 H19        10.4116    3.2348   -1.2621 H         1 <0>         0.4396
     37 H20        10.1160    2.6624   -2.7786 H         1 <0>         0.4394
@<TRIPOS>BOND
     1    1    7 1
     2    1    2 1
     3    1   20 1
     4    1   21 1
     5    2    3 1
     6    2   22 1
     7    2   23 1
     8    3    4 1
     9    3   11 1
    10    3    5 1
    11    5    6 1
    12    5    7 1
    13    5    8 1
    14    7   24 1
    15    7   25 1
    16    8    9 1
    17    9   10 1
    18    9   26 1
    19    9   27 1
    20   10   11 1
    21   10   28 1
    22   10   29 1
    23   11   12 am
    24   12   13 2
    25   12   14 1
    26   14   15 2
    27   14   16 am
    28   16   17 1
    29   16   30 1
    30   17   18 1
    31   17   31 1
    32   17   32 1
    33   18   19 1
    34   18   33 1
    35   18   34 1
    36   19   35 1
    37   19   36 1
    38   19   37 1
@<TRIPOS>MOLECULE
ZINC54499326
   27    27     0     0     0
SMALL
USER_CHARGES

@<TRIPOS>ATOM
      1 C1         -0.0184    1.5028    0.0103 C.3       1 <0>        -0.0690
      2 C2          0.0021   -0.0041    0.0020 C.2       1 <0>         0.2378
      3 N1          0.0075   -0.7723   -1.0866 N.2       1 <0>        -0.5001
      4 C3          0.0262   -2.0336   -0.7396 C.2       1 <0>         0.2069
      5 N2          0.0332   -2.0968    0.6032 N.pl3     1 <0>        -0.3544
      6 N3          0.0230   -0.7692    1.0616 N.2       1 <0>        -0.2778
      7 C4          0.0534   -3.3093    1.4251 C.3       1 <0>         0.0789
      8 C5          0.0375   -3.2104   -1.6809 C.3       1 <0>         0.1401
      9 H1         -0.2140   -4.1176   -1.1315 H         1 <0>         0.1684
     10 C6          1.4301   -3.3571   -2.2974 C.3       1 <0>         0.0867
     11 H2          2.1488   -3.6056   -1.5165 H         1 <0>         0.1029
     12 C7          1.4092   -4.4720   -3.3449 C.3       1 <0>        -0.2094
     13 O1          1.8080   -2.1269   -2.9186 O.3       1 <0>        -0.5520
     14 N4         -0.9497   -2.9941   -2.7470 N.4       1 <0>        -0.6262
     15 H3          1.0042    1.8801    0.0026 H         1 <0>         0.0934
     16 H4         -0.5455    1.8639   -0.8728 H         1 <0>         0.0934
     17 H5         -0.5286    1.8543    0.9071 H         1 <0>         0.0910
     18 H6          1.0860   -3.5961    1.6243 H         1 <0>         0.0949
     19 H7         -0.4588   -3.1177    2.3680 H         1 <0>         0.1101
     20 H8         -0.4520   -4.1163    0.8946 H         1 <0>         0.0944
     21 H9          1.1210   -5.4104   -2.8711 H         1 <0>         0.0879
     22 H10         0.6905   -4.2235   -4.1258 H         1 <0>         0.0660
     23 H11         2.4013   -4.5765   -3.7841 H         1 <0>         0.0967
     24 H12         2.6822   -2.1470   -3.3313 H         1 <0>         0.4069
     25 H13        -0.9422   -3.7820   -3.3773 H         1 <0>         0.4407
     26 H14        -1.8681   -2.8974   -2.3405 H         1 <0>         0.4391
     27 H15        -0.7169   -2.1543   -3.2556 H         1 <0>         0.4526
@<TRIPOS>BOND
     1    1    2 1
     2    1   15 1
     3    1   16 1
     4    1   17 1
     5    2    6 2
     6    2    3 1
     7    3    4 2
     8    4    5 1
     9    4    8 1
    10    5    6 1
    11    5    7 1
    12    7   18 1
    13    7   19 1
    14    7   20 1
    15    8    9 1
    16    8   10 1
    17    8   14 1
    18   10   11 1
    19   10   12 1
    20   10   13 1
    21   12   21 1
    22   12   22 1
    23   12   23 1
    24   13   24 1
    25   14   25 1
    26   14   26 1
    27   14   27 1
@<TRIPOS>MOLECULE
ZINC00352544
   31    32     0     0     0
SMALL
USER_CHARGES
N'-morpholinocarbothioylpyrazine-2-carbohydrazide
@<TRIPOS>ATOM
      1 C1         -3.5906   -5.2688   -0.0025 C.ar      1 <0>         0.0863
      2 C2         -4.8008   -4.5895   -0.0026 C.ar      1 <0>         0.0579
      3 N1         -4.8196   -3.2719    0.0020 N.ar      1 <0>        -0.4074
      4 C3         -3.6762   -2.5919    0.0114 C.ar      1 <0>         0.0289
      5 C4         -2.4623   -3.2772    0.0066 C.ar      1 <0>         0.1217
      6 N2         -2.4524   -4.5983    0.0024 N.ar      1 <0>        -0.4357
      7 C5         -3.6930   -1.1106    0.0218 C.2       1 <0>         0.5833
      8 O1         -2.6475   -0.4912    0.0262 O.2       1 <0>        -0.5243
      9 N3         -4.8677   -0.4500    0.0263 N.am      1 <0>        -0.4850
     10 N4         -4.8835    0.9509    0.0361 N.pl3     1 <0>        -0.4797
     11 C6         -6.0538    1.6123   -0.0613 C.2       1 <0>         0.5599
     12 S1         -7.5297    0.7447   -0.0647 S.2       1 <0>        -0.6167
     13 N5         -6.0622    2.9567   -0.1560 N.pl3     1 <0>        -0.5639
     14 C7         -4.8065    3.7163   -0.2639 C.3       1 <0>         0.0536
     15 C8         -4.9283    4.6760   -1.4584 C.3       1 <0>         0.0518
     16 O2         -6.1254    5.4454   -1.3217 O.3       1 <0>        -0.3736
     17 C9         -7.3257    4.6691   -1.3431 C.3       1 <0>         0.0479
     18 C10        -7.3270    3.7087   -0.1483 C.3       1 <0>         0.0694
     19 H1         -3.5794   -6.3487   -0.0059 H         1 <0>         0.1834
     20 H2         -5.7289   -5.1418   -0.0063 H         1 <0>         0.1855
     21 H3         -1.5316   -2.7293    0.0110 H         1 <0>         0.1862
     22 H4         -5.7022   -0.9444    0.0228 H         1 <0>         0.4553
     23 H5         -4.0522    1.4448    0.1130 H         1 <0>         0.4316
     24 H6         -4.6413    4.2844    0.6516 H         1 <0>         0.1002
     25 H7         -3.9752    3.0303   -0.4259 H         1 <0>         0.0897
     26 H8         -4.9669    4.1043   -2.3856 H         1 <0>         0.0625
     27 H9         -4.0667    5.3435   -1.4779 H         1 <0>         0.1168
     28 H10        -7.3730    4.0974   -2.2699 H         1 <0>         0.0638
     29 H11        -8.1889    5.3316   -1.2787 H         1 <0>         0.1192
     30 H12        -8.1656    3.0176   -0.2338 H         1 <0>         0.1393
     31 H13        -7.4112    4.2760    0.7786 H         1 <0>         0.0923
@<TRIPOS>BOND
     1    1    6 ar
     2    1    2 ar
     3    1   19 1
     4    2    3 ar
     5    2   20 1
     6    3    4 ar
     7    4    5 ar
     8    4    7 1
     9    5    6 ar
    10    5   21 1
    11    7    8 2
    12    7    9 am
    13    9   10 1
    14    9   22 1
    15   10   11 1
    16   10   23 1
    17   11   12 2
    18   11   13 1
    19   13   18 1
    20   13   14 1
    21   14   15 1
    22   14   24 1
    23   14   25 1
    24   15   16 1
    25   15   26 1
    26   15   27 1
    27   16   17 1
    28   17   18 1
    29   17   28 1
    30   17   29 1
    31   18   30 1
    32   18   31 1
@<TRIPOS>MOLECULE
ZINC38007276
   36    37     0     0     0
SMALL
USER_CHARGES

@<TRIPOS>ATOM
      1 C1          0.0269    1.5322    0.0620 C.3       1 <0>        -0.1458
      2 C2         -0.1082    0.0084    0.0359 C.3       1 <0>         0.0727
      3 H1          0.5665   -0.4041   -0.7143 H         1 <0>         0.0680
      4 C3         -1.5524   -0.3717   -0.3101 C.3       1 <0>         0.0866
      5 N1         -1.7016   -1.8264   -0.1457 N.pl3     1 <0>        -1.0074
      6 C4         -1.2450   -2.4302    1.1162 C.3       1 <0>         0.0913
      7 C5          0.1842   -1.9498    1.3927 C.3       1 <0>         0.0788
      8 H2          0.4909   -2.2730    2.3875 H         1 <0>         0.1160
      9 O1          0.2243   -0.5226    1.3209 O.3       1 <0>        -0.3679
     10 C6          1.1331   -2.5409    0.3481 C.3       1 <0>        -0.1865
     11 S1         -2.3643   -2.7563   -1.3450 S.o2      1 <0>         2.7837
     12 O2         -2.2935   -1.9897   -2.5394 O.2       1 <0>        -0.9741
     13 O3         -1.7767   -4.0451   -1.2311 O.2       1 <0>        -0.9734
     14 N2         -3.9723   -2.9365   -0.9929 N.pl3     1 <0>        -1.1242
     15 C7         -4.8501   -1.7641   -0.9568 C.3       1 <0>         0.2000
     16 C8         -6.2886   -2.2124   -0.9886 C.2       1 <0>        -0.2584
     17 C9         -7.0357   -2.4125   -2.0990 C.2       1 <0>         0.0847
     18 N3         -8.2636   -2.8079   -1.7027 N.pl3     1 <0>        -0.4734
     19 H3         -9.0091   -3.0235   -2.2847 H         1 <0>         0.4429
     20 N4         -8.2714   -2.8523   -0.3026 N.2       1 <0>        -0.2917
     21 C10        -7.0854   -2.5011    0.1240 C.2       1 <0>         0.0661
     22 H4          1.0536    1.8017    0.3099 H         1 <0>         0.0685
     23 H5         -0.2285    1.9365   -0.9175 H         1 <0>         0.0752
     24 H6         -0.6481    1.9440    0.8123 H         1 <0>         0.0667
     25 H7         -2.2389    0.1458    0.3600 H         1 <0>         0.0796
     26 H8         -1.7677   -0.0949   -1.3422 H         1 <0>         0.1035
     27 H9         -1.9005   -2.1199    1.9299 H         1 <0>         0.0798
     28 H10        -1.2567   -3.5166    1.0286 H         1 <0>         0.1003
     29 H11         0.7645   -2.3079   -0.6508 H         1 <0>         0.0559
     30 H12         2.1275   -2.1135    0.4774 H         1 <0>         0.0684
     31 H13         1.1834   -3.6225    0.4737 H         1 <0>         0.0735
     32 H14        -4.3331   -3.8183   -0.8105 H         1 <0>         0.4181
     33 H15        -4.6655   -1.2000   -0.0426 H         1 <0>         0.0735
     34 H16        -4.6474   -1.1317   -1.8211 H         1 <0>         0.0825
     35 H17        -6.7080   -2.2795   -3.1194 H         1 <0>         0.1808
     36 H18        -6.7761   -2.4414    1.1571 H         1 <0>         0.1857
@<TRIPOS>BOND
     1    1    2 1
     2    1   22 1
     3    1   23 1
     4    1   24 1
     5    2    3 1
     6    2    9 1
     7    2    4 1
     8    4    5 1
     9    4   25 1
    10    4   26 1
    11    5    6 1
    12    5   11 1
    13    6    7 1
    14    6   27 1
    15    6   28 1
    16    7    8 1
    17    7    9 1
    18    7   10 1
    19   10   29 1
    20   10   30 1
    21   10   31 1
    22   11   12 2
    23   11   13 2
    24   11   14 1
    25   14   15 1
    26   14   32 1
    27   15   16 1
    28   15   33 1
    29   15   34 1
    30   16   21 1
    31   16   17 2
    32   17   18 1
    33   17   35 1
    34   18   19 1
    35   18   20 1
    36   20   21 2
    37   21   36 1
@<TRIPOS>MOLECULE
ZINC43760873
   44    46     0     0     0
SMALL
USER_CHARGES

@<TRIPOS>ATOM
      1 C1         -0.0184    1.5028    0.0103 C.3       1 <0>        -0.1752
      2 C2          0.0021   -0.0041    0.0020 C.2       1 <0>         0.5154
      3 O1          1.0605   -0.5961   -0.0113 O.2       1 <0>        -0.5388
      4 N1         -1.1558   -0.6938    0.0094 N.am      1 <0>        -0.7173
      5 C3         -1.1360   -2.1586    0.0013 C.3       1 <0>         0.1004
      6 H1         -0.2953   -2.5085   -0.5978 H         1 <0>         0.1138
      7 C4         -2.4442   -2.6852   -0.5953 C.3       1 <0>         0.0680
      8 H2         -2.5758   -2.2803   -1.5987 H         1 <0>         0.0836
      9 C5         -3.6145   -2.2472    0.2908 C.3       1 <0>         0.0719
     10 H3         -3.7036   -1.1610    0.2722 H         1 <0>         0.1199
     11 C6         -3.3662   -2.7212    1.7264 C.3       1 <0>         0.0329
     12 H4         -4.1664   -2.3587    2.3717 H         1 <0>         0.1132
     13 C7         -3.3477   -4.2524    1.7483 C.3       1 <0>        -0.0113
     14 O2         -4.5617   -4.7389    1.1671 O.3       1 <0>        -0.3805
     15 C8         -4.7835   -4.2862   -0.1706 C.3       1 <0>         0.2666
     16 H5         -3.9768   -4.6406   -0.8123 H         1 <0>         0.1296
     17 O3         -4.8203   -2.8395   -0.2059 O.3       1 <0>        -0.3751
     18 C9         -6.0980   -4.8265   -0.6720 C.ar      1 <0>        -0.0873
     19 C10        -7.0976   -3.9568   -1.0660 C.ar      1 <0>        -0.0904
     20 C11        -8.3033   -4.4524   -1.5259 C.ar      1 <0>        -0.1261
     21 C12        -8.5092   -5.8177   -1.5922 C.ar      1 <0>        -0.1137
     22 C13        -7.5093   -6.6874   -1.1990 C.ar      1 <0>        -0.1243
     23 C14        -6.3020   -6.1919   -0.7431 C.ar      1 <0>        -0.0925
     24 O4         -2.1154   -2.2189    2.1935 O.3       1 <0>        -0.3660
     25 C15        -0.9936   -2.6767    1.4352 C.3       1 <0>         0.2294
     26 H6         -0.0817   -2.2760    1.8781 H         1 <0>         0.1095
     27 O5         -0.9317   -4.1043    1.4228 O.3       1 <0>        -0.3748
     28 C16        -0.6849   -4.6865    2.7043 C.3       1 <0>         0.0219
     29 O6         -2.3998   -4.1121   -0.6583 O.3       1 <0>        -0.5259
     30 H7          1.0042    1.8801    0.0026 H         1 <0>         0.0965
     31 H8         -0.5455    1.8639   -0.8728 H         1 <0>         0.0916
     32 H9         -0.5286    1.8543    0.9071 H         1 <0>         0.0923
     33 H10        -2.0023   -0.2203    0.0200 H         1 <0>         0.4058
     34 H11        -2.4962   -4.6154    1.1727 H         1 <0>         0.1509
     35 H12        -3.2702   -4.6018    2.7779 H         1 <0>         0.0872
     36 H13        -6.9366   -2.8901   -1.0143 H         1 <0>         0.1303
     37 H14        -9.0845   -3.7729   -1.8332 H         1 <0>         0.1237
     38 H15        -9.4515   -6.2049   -1.9509 H         1 <0>         0.1228
     39 H16        -7.6703   -7.7541   -1.2505 H         1 <0>         0.1249
     40 H17        -5.5194   -6.8714   -0.4394 H         1 <0>         0.1251
     41 H18        -0.6525   -5.7719    2.6101 H         1 <0>         0.0940
     42 H19         0.2692   -4.3265    3.0892 H         1 <0>         0.0480
     43 H20        -1.4832   -4.4051    3.3910 H         1 <0>         0.0531
     44 H21        -1.6789   -4.4596   -1.2011 H         1 <0>         0.3769
@<TRIPOS>BOND
     1    1    2 1
     2    1   30 1
     3    1   31 1
     4    1   32 1
     5    2    3 2
     6    2    4 am
     7    4    5 1
     8    4   33 1
     9    5    6 1
    10    5   25 1
    11    5    7 1
    12    7    8 1
    13    7    9 1
    14    7   29 1
    15    9   10 1
    16    9   17 1
    17    9   11 1
    18   11   12 1
    19   11   13 1
    20   11   24 1
    21   13   14 1
    22   13   34 1
    23   13   35 1
    24   14   15 1
    25   15   16 1
    26   15   17 1
    27   15   18 1
    28   18   23 ar
    29   18   19 ar
    30   19   20 ar
    31   19   36 1
    32   20   21 ar
    33   20   37 1
    34   21   22 ar
    35   21   38 1
    36   22   23 ar
    37   22   39 1
    38   23   40 1
    39   24   25 1
    40   25   26 1
    41   25   27 1
    42   27   28 1
    43   28   41 1
    44   28   42 1
    45   28   43 1
    46   29   44 1
@<TRIPOS>MOLECULE
ZINC49891838
   33    34     0     0     0
SMALL
USER_CHARGES

@<TRIPOS>ATOM
      1 C1         -0.0184    1.5028    0.0103 C.3       1 <0>        -0.1423
      2 C2          0.0021   -0.0041    0.0020 C.2       1 <0>         0.2283
      3 C3          0.0079   -0.7958   -1.0953 C.2       1 <0>        -0.8304
      4 C4          0.0284   -2.1267   -0.6656 C.2       1 <0>         0.1657
      5 N1          0.0347   -2.1338    0.6427 N.2       1 <0>        -0.2830
      6 N2          0.0237   -0.8054    1.0876 N.pl3     1 <0>        -0.4577
      7 H1          0.0286   -0.5133    2.0125 H         1 <0>         0.4441
      8 C5          0.0404   -3.3426   -1.5559 C.3       1 <0>        -0.1157
      9 S1         -0.0081   -0.2472   -2.7696 S.o2      1 <0>         2.7243
     10 O1         -0.5477   -1.3118   -3.5407 O.2       1 <0>        -0.9429
     11 O2         -0.5775    1.0548   -2.7649 O.2       1 <0>        -0.9483
     12 N3          1.5692   -0.0722   -3.2427 N.pl3     1 <0>        -1.1055
     13 C6          2.4438   -1.2447   -3.3241 C.3       1 <0>         0.3005
     14 H2          1.8398   -2.1384   -3.4809 H         1 <0>         0.1483
     15 C7          3.2025   -1.3790   -2.0698 C.1       1 <0>         0.1778
     16 N4          3.7879   -1.4827   -1.1018 N.1       1 <0>        -0.3824
     17 C8          3.4020   -1.0776   -4.4752 C.ar      1 <0>        -0.0547
     18 C9          3.9864    0.1516   -4.7396 C.ar      1 <0>        -0.1557
     19 C10         4.8603    0.2668   -5.8040 C.ar      1 <0>         0.1073
     20 N5          5.1394   -0.7745   -6.5634 N.ar      1 <0>        -0.4751
     21 C11         4.6024   -1.9583   -6.3416 C.ar      1 <0>         0.1079
     22 C12         3.7245   -2.1508   -5.2917 C.ar      1 <0>        -0.1495
     23 H3          1.0042    1.8801    0.0026 H         1 <0>         0.0971
     24 H4         -0.5455    1.8639   -0.8728 H         1 <0>         0.1279
     25 H5         -0.5286    1.8543    0.9071 H         1 <0>         0.0886
     26 H6          1.0708   -3.6217   -1.7759 H         1 <0>         0.0826
     27 H7         -0.4595   -4.1685   -1.0497 H         1 <0>         0.0886
     28 H8         -0.4815   -3.1172   -2.4858 H         1 <0>         0.1155
     29 H9          1.9140    0.8065   -3.4658 H         1 <0>         0.4259
     30 H10         3.7613    1.0083   -4.1217 H         1 <0>         0.1383
     31 H11         5.3197    1.2209   -6.0165 H         1 <0>         0.1626
     32 H12         4.8548   -2.7879   -6.9854 H         1 <0>         0.1647
     33 H13         3.2918   -3.1239   -5.1122 H         1 <0>         0.1473
@<TRIPOS>BOND
     1    1    2 1
     2    1   23 1
     3    1   24 1
     4    1   25 1
     5    2    6 1
     6    2    3 2
     7    3    4 1
     8    3    9 1
     9    4    5 2
    10    4    8 1
    11    5    6 1
    12    6    7 1
    13    8   26 1
    14    8   27 1
    15    8   28 1
    16    9   10 2
    17    9   11 2
    18    9   12 1
    19   12   13 1
    20   12   29 1
    21   13   14 1
    22   13   15 1
    23   13   17 1
    24   15   16 3
    25   17   22 ar
    26   17   18 ar
    27   18   19 ar
    28   18   30 1
    29   19   20 ar
    30   19   31 1
    31   20   21 ar
    32   21   22 ar
    33   21   32 1
    34   22   33 1
@<TRIPOS>MOLECULE
ZINC50673851
   34    35     0     0     0
SMALL
USER_CHARGES

@<TRIPOS>ATOM
      1 C1         -0.0178    1.4608    0.0101 C.3       1 <0>         0.0981
      2 N1          0.0021   -0.0041    0.0020 N.pl3     1 <0>        -0.6885
      3 C2          0.6206   -0.6934    1.0305 C.ar      1 <0>         0.5972
      4 N2          1.1851   -0.0131    2.0173 N.ar      1 <0>        -0.5717
      5 C3          1.7841   -0.6412    3.0156 C.ar      1 <0>         0.2984
      6 C4          1.8162   -2.0268    3.0203 C.ar      1 <0>        -0.8488
      7 C5          1.2159   -2.7072    1.9725 C.ar      1 <0>         0.2936
      8 N3          0.6294   -2.0182    1.0076 N.ar      1 <0>        -0.5763
      9 S1          2.6036   -2.9045    4.3297 S.o2      1 <0>         2.7246
     10 O1          2.9629   -4.1763    3.8077 O.2       1 <0>        -0.9531
     11 O2          3.5572   -2.0170    4.8976 O.2       1 <0>        -0.9505
     12 N4          1.4585   -3.1772    5.4944 N.pl3     1 <0>        -1.0002
     13 C6          1.1458   -2.2771    6.6193 C.3       1 <0>         0.1174
     14 C7          0.5239   -3.1954    7.7009 C.3       1 <0>        -0.1274
     15 C8         -0.2954   -4.1874    6.8337 C.3       1 <0>        -0.1216
     16 C9          0.5809   -4.3541    5.5743 C.3       1 <0>         0.1512
     17 H1          1.1818   -5.2594    5.6602 H         1 <0>         0.0987
     18 C10        -0.3033   -4.4293    4.3280 C.3       1 <0>         0.0506
     19 O3         -1.1864   -3.3061    4.3019 O.3       1 <0>        -0.5597
     20 H2          1.0048    1.8381    0.0023 H         1 <0>         0.0656
     21 H3         -0.5450    1.8219   -0.8730 H         1 <0>         0.0822
     22 H4         -0.5280    1.8123    0.9069 H         1 <0>         0.0658
     23 H5         -0.4183   -0.4908   -0.7241 H         1 <0>         0.4198
     24 H6          2.2428   -0.0811    3.8170 H         1 <0>         0.1824
     25 H7          1.2236   -3.7868    1.9461 H         1 <0>         0.1787
     26 H8          2.0559   -1.8101    6.9958 H         1 <0>         0.0847
     27 H9          0.4288   -1.5170    6.3090 H         1 <0>         0.0698
     28 H10         1.2985   -3.7161    8.2638 H         1 <0>         0.0771
     29 H11        -0.1270   -2.6291    8.3670 H         1 <0>         0.0844
     30 H12        -0.4186   -5.1397    7.3495 H         1 <0>         0.0805
     31 H13        -1.2639   -3.7615    6.5715 H         1 <0>         0.0894
     32 H14         0.3237   -4.4193    3.4364 H         1 <0>         0.0427
     33 H15        -0.8868   -5.3497    4.3515 H         1 <0>         0.0673
     34 H16        -1.7779   -3.2885    3.5371 H         1 <0>         0.3778
@<TRIPOS>BOND
     1    1    2 1
     2    1   20 1
     3    1   21 1
     4    1   22 1
     5    2    3 1
     6    2   23 1
     7    3    8 ar
     8    3    4 ar
     9    4    5 ar
    10    5    6 ar
    11    5   24 1
    12    6    7 ar
    13    6    9 1
    14    7    8 ar
    15    7   25 1
    16    9   10 2
    17    9   11 2
    18    9   12 1
    19   12   16 1
    20   12   13 1
    21   13   14 1
    22   13   26 1
    23   13   27 1
    24   14   15 1
    25   14   28 1
    26   14   29 1
    27   15   16 1
    28   15   30 1
    29   15   31 1
    30   16   17 1
    31   16   18 1
    32   18   19 1
    33   18   32 1
    34   18   33 1
    35   19   34 1
@<TRIPOS>MOLECULE
ZINC65611075
   44    45     0     0     0
SMALL
USER_CHARGES

@<TRIPOS>ATOM
      1 C1         -0.0184    1.5028    0.0103 C.3       1 <0>        -0.1753
      2 C2          0.0021   -0.0041    0.0020 C.2       1 <0>         0.5126
      3 O1          1.0605   -0.5961   -0.0113 O.2       1 <0>        -0.5433
      4 N1         -1.1558   -0.6938    0.0094 N.am      1 <0>        -0.6179
      5 C3         -2.4459    0.0093    0.0193 C.3       1 <0>         0.1108
      6 C4         -3.2826   -0.5121    1.1918 C.3       1 <0>        -0.1435
      7 C5         -3.3975   -2.0350    1.0938 C.3       1 <0>         0.1641
      8 C6         -2.0032   -2.6601    1.1798 C.3       1 <0>        -0.1438
      9 C7         -1.1521   -2.1630    0.0014 C.3       1 <0>         0.1125
     10 N2         -4.2248   -2.5339    2.1952 N.am      1 <0>        -0.7423
     11 C8         -4.8813   -3.7041    2.0684 C.2       1 <0>         0.7048
     12 O2         -4.7870   -4.3458    1.0399 O.2       1 <0>        -0.5843
     13 N3         -5.6423   -4.1631    3.0816 N.am      1 <0>        -0.7490
     14 C9         -6.3560   -5.4351    2.9438 C.3       1 <0>         0.1480
     15 C10        -7.1393   -5.7220    4.2263 C.3       1 <0>        -0.1046
     16 H1         -6.4628   -5.6814    5.0801 H         1 <0>         0.1028
     17 C11        -8.2423   -4.6646    4.3982 C.3       1 <0>        -0.1292
     18 C12        -9.2085   -5.1499    5.5164 C.3       1 <0>        -0.5761
     19 S1         -9.3194   -6.9438    5.1109 S.o2      1 <0>         2.3719
     20 O3        -10.4322   -7.1560    4.2531 O.2       1 <0>        -0.9325
     21 O4         -9.2080   -7.6967    6.3109 O.2       1 <0>        -0.9361
     22 C13        -7.7710   -7.1322    4.1380 C.3       1 <0>        -0.5772
     23 H2          1.0042    1.8801    0.0026 H         1 <0>         0.0931
     24 H3         -0.5455    1.8639   -0.8728 H         1 <0>         0.0891
     25 H4         -0.5286    1.8543    0.9071 H         1 <0>         0.0882
     26 H5         -2.2778    1.0797    0.1379 H         1 <0>         0.0944
     27 H6         -2.9716   -0.1786   -0.9169 H         1 <0>         0.0762
     28 H7         -2.7996   -0.2434    2.1313 H         1 <0>         0.0746
     29 H8         -4.2778   -0.0690    1.1540 H         1 <0>         0.0854
     30 H9         -3.8581   -2.3040    0.1432 H         1 <0>         0.0928
     31 H10        -1.5323   -2.3712    2.1194 H         1 <0>         0.0682
     32 H11        -2.0878   -3.7458    1.1334 H         1 <0>         0.0822
     33 H12        -1.5745   -2.5244   -0.9361 H         1 <0>         0.0722
     34 H13        -0.1300   -2.5264    0.1083 H         1 <0>         0.0966
     35 H14        -4.3000   -2.0220    3.0157 H         1 <0>         0.3959
     36 H15        -5.7176   -3.6512    3.9021 H         1 <0>         0.3965
     37 H16        -7.0461   -5.3751    2.1022 H         1 <0>         0.0765
     38 H17        -5.6387   -6.2370    2.7690 H         1 <0>         0.0781
     39 H18        -7.7974   -3.7115    4.6842 H         1 <0>         0.0994
     40 H19        -8.7902   -4.5487    3.4630 H         1 <0>         0.0937
     41 H20        -8.7765   -4.9952    6.5051 H         1 <0>         0.1398
     42 H21       -10.1818   -4.6662    5.4337 H         1 <0>         0.1428
     43 H22        -7.9938   -7.3917    3.1031 H         1 <0>         0.1453
     44 H23        -7.1181   -7.8773    4.5925 H         1 <0>         0.1465
@<TRIPOS>BOND
     1    1    2 1
     2    1   23 1
     3    1   24 1
     4    1   25 1
     5    2    3 2
     6    2    4 am
     7    4    9 1
     8    4    5 1
     9    5    6 1
    10    5   26 1
    11    5   27 1
    12    6    7 1
    13    6   28 1
    14    6   29 1
    15    7    8 1
    16    7   10 1
    17    7   30 1
    18    8    9 1
    19    8   31 1
    20    8   32 1
    21    9   33 1
    22    9   34 1
    23   10   11 am
    24   10   35 1
    25   11   12 2
    26   11   13 am
    27   13   14 1
    28   13   36 1
    29   14   15 1
    30   14   37 1
    31   14   38 1
    32   15   16 1
    33   15   22 1
    34   15   17 1
    35   17   18 1
    36   17   39 1
    37   17   40 1
    38   18   19 1
    39   18   41 1
    40   18   42 1
    41   19   20 2
    42   19   21 2
    43   19   22 1
    44   22   43 1
    45   22   44 1
@<TRIPOS>MOLECULE
ZINC25416630
   34    34     0     0     0
SMALL
USER_CHARGES
3-(acetamidocarbamoyl)-N,N-dimethyl-benzenesulfonamide
@<TRIPOS>ATOM
      1 C1         -1.2136    3.5616    0.0272 C.3       1 <0>        -0.1624
      2 C2         -1.1931    2.0547    0.0189 C.2       1 <0>         0.5139
      3 O1         -2.2351    1.4341    0.0204 O.2       1 <0>        -0.5540
      4 N1         -0.0169    1.3968    0.0097 N.am      1 <0>        -0.5323
      5 N2          0.0021   -0.0041    0.0020 N.am      1 <0>        -0.5318
      6 C3          1.1783   -0.6620   -0.0127 C.2       1 <0>         0.5628
      7 O2          2.2225   -0.0400   -0.0194 O.2       1 <0>        -0.5356
      8 C4          1.1983   -2.1403   -0.0209 C.ar      1 <0>        -0.1461
      9 C5          0.0009   -2.8577   -0.0075 C.ar      1 <0>        -0.0325
     10 C6          0.0265   -4.2368   -0.0200 C.ar      1 <0>        -0.1400
     11 C7          1.2359   -4.9092   -0.0351 C.ar      1 <0>         0.0072
     12 C8          2.4262   -4.2043   -0.0432 C.ar      1 <0>        -0.6845
     13 C9          2.4145   -2.8246   -0.0362 C.ar      1 <0>         0.0416
     14 S1          3.9605   -5.0703   -0.0619 S.o2      1 <0>         2.6945
     15 O3          3.6969   -6.3517   -0.6168 O.2       1 <0>        -0.9479
     16 O4          4.9212   -4.1826   -0.6173 O.2       1 <0>        -0.9456
     17 N3          4.4017   -5.3189    1.5148 N.pl3     1 <0>        -1.0044
     18 C10         3.9733   -6.5338    2.2124 C.3       1 <0>         0.0841
     19 C11         5.2205   -4.3240    2.2119 C.3       1 <0>         0.0832
     20 H1         -0.1816    3.9423    0.0244 H         1 <0>         0.0825
     21 H2         -1.7329    3.9162    0.9297 H         1 <0>         0.1040
     22 H3         -1.7413    3.9260   -0.8665 H         1 <0>         0.1042
     23 H4          0.9282    1.9597    0.0082 H         1 <0>         0.4601
     24 H5         -0.9429   -0.5670    0.0080 H         1 <0>         0.4549
     25 H6         -0.9436   -2.3341    0.0085 H         1 <0>         0.1359
     26 H7         -0.8992   -4.7930   -0.0134 H         1 <0>         0.1454
     27 H8          1.2505   -5.9891   -0.0404 H         1 <0>         0.1488
     28 H9          3.3444   -2.2755   -0.0428 H         1 <0>         0.1559
     29 H10         4.3602   -6.5211    3.2420 H         1 <0>         0.0857
     30 H11         4.3637   -7.4165    1.6848 H         1 <0>         0.0722
     31 H12         2.8743   -6.5759    2.2341 H         1 <0>         0.0603
     32 H13         5.4098   -4.6614    3.2416 H         1 <0>         0.0858
     33 H14         4.6886   -3.3614    2.2334 H         1 <0>         0.0613
     34 H15         6.1779   -4.2022    1.6841 H         1 <0>         0.0728
@<TRIPOS>BOND
     1    1    2 1
     2    1   20 1
     3    1   21 1
     4    1   22 1
     5    2    3 2
     6    2    4 am
     7    4    5 1
     8    4   23 1
     9    5    6 am
    10    5   24 1
    11    6    7 2
    12    6    8 1
    13    8   13 ar
    14    8    9 ar
    15    9   10 ar
    16    9   25 1
    17   10   11 ar
    18   10   26 1
    19   11   12 ar
    20   11   27 1
    21   12   13 ar
    22   12   14 1
    23   13   28 1
    24   14   15 2
    25   14   16 2
    26   14   17 1
    27   17   18 1
    28   17   19 1
    29   18   29 1
    30   18   30 1
    31   18   31 1
    32   19   32 1
    33   19   33 1
    34   19   34 1
@<TRIPOS>MOLECULE
ZINC41528722
   32    34     0     0     0
SMALL
USER_CHARGES

@<TRIPOS>ATOM
      1 C1         -0.0225    1.8097    0.0120 C.3       1 <0>        -0.1404
      2 S1          0.0021   -0.0041    0.0020 S.3       1 <0>        -0.0265
      3 C2         -1.7016   -0.4536    0.0159 C.2       1 <0>         0.1143
      4 C3         -2.2367   -1.8119    0.0195 C.ar      1 <0>        -0.3096
      5 C4         -3.6401   -1.6873    0.0312 C.ar      1 <0>         0.3904
      6 N1         -3.9171   -0.3541    0.0342 N.pl3     1 <0>        -0.4739
      7 H1         -4.8062    0.0338    0.0418 H         1 <0>         0.4491
      8 N2         -2.7195    0.3690    0.0305 N.2       1 <0>        -0.2477
      9 N3         -4.3798   -2.7961    0.0371 N.ar      1 <0>        -0.5741
     10 C5         -3.8113   -3.9819    0.0321 C.ar      1 <0>         0.3939
     11 N4         -2.5003   -4.1451    0.0212 N.ar      1 <0>        -0.6023
     12 C6         -1.6777   -3.1003    0.0146 C.ar      1 <0>         0.5187
     13 N5         -0.3080   -3.2777    0.0029 N.pl3     1 <0>        -0.6851
     14 C7          0.2554   -4.6300   -0.0021 C.3       1 <0>         0.1522
     15 H2         -0.3845   -5.2907    0.5827 H         1 <0>         0.1218
     16 C8          0.3343   -5.1449   -1.4489 C.3       1 <0>        -0.1461
     17 C9          1.2116   -6.4293   -1.4588 C.3       1 <0>        -0.5677
     18 S2          2.5450   -5.9357   -0.2869 S.o2      1 <0>         2.3779
     19 O1          3.6195   -5.3666   -1.0223 O.2       1 <0>        -0.9286
     20 O2          2.8005   -7.0135    0.6032 O.2       1 <0>        -0.9299
     21 C10         1.6707   -4.5993    0.6236 C.3       1 <0>        -0.6039
     22 H3          1.0001    2.1870    0.0043 H         1 <0>         0.1173
     23 H4         -0.5497    2.1708   -0.8711 H         1 <0>         0.0923
     24 H5         -0.5327    2.1613    0.9088 H         1 <0>         0.0922
     25 H6         -4.4421   -4.8585    0.0375 H         1 <0>         0.2091
     26 H7          0.2808   -2.5069   -0.0021 H         1 <0>         0.4157
     27 H8         -0.6666   -5.3799   -1.8111 H         1 <0>         0.1105
     28 H9          0.7869   -4.3850   -2.0859 H         1 <0>         0.0917
     29 H10         0.6560   -7.2890   -1.0843 H         1 <0>         0.1449
     30 H11         1.6131   -6.6247   -2.4531 H         1 <0>         0.1459
     31 H12         2.1494   -3.6356    0.4496 H         1 <0>         0.1461
     32 H13         1.6270   -4.8235    1.6894 H         1 <0>         0.1521
@<TRIPOS>BOND
     1    1    2 1
     2    1   22 1
     3    1   23 1
     4    1   24 1
     5    2    3 1
     6    3    8 2
     7    3    4 1
     8    4   12 ar
     9    4    5 ar
    10    5    6 1
    11    5    9 ar
    12    6    7 1
    13    6    8 1
    14    9   10 ar
    15   10   11 ar
    16   10   25 1
    17   11   12 ar
    18   12   13 1
    19   13   14 1
    20   13   26 1
    21   14   15 1
    22   14   21 1
    23   14   16 1
    24   16   17 1
    25   16   27 1
    26   16   28 1
    27   17   18 1
    28   17   29 1
    29   17   30 1
    30   18   19 2
    31   18   20 2
    32   18   21 1
    33   21   31 1
    34   21   32 1
@<TRIPOS>MOLECULE
ZINC49412299
   32    34     0     0     0
SMALL
USER_CHARGES

@<TRIPOS>ATOM
      1 C1         -0.0162    1.3409    0.0094 C.2       1 <0>        -0.2181
      2 C2          1.3313    1.7689   -0.0012 C.2       1 <0>        -0.2078
      3 C3          2.0923    0.6599   -0.0144 C.2       1 <0>         0.0313
      4 O1          1.2819   -0.4111   -0.0124 O.3       1 <0>        -0.1547
      5 C4          0.0021   -0.0041    0.0020 C.2       1 <0>        -0.0309
      6 C5          3.5989    0.6249   -0.0294 C.3       1 <0>        -0.0405
      7 H1          4.0936    1.4986    0.3949 H         1 <0>         0.1480
      8 C6          4.2760   -0.7335    0.1633 C.3       1 <0>        -0.1359
      9 C7          4.2777   -0.0655   -1.2140 C.3       1 <0>        -0.1762
     10 H2          5.2193    0.3536   -1.5688 H         1 <0>         0.1413
     11 C8          3.3887   -0.6587   -2.2765 C.2       1 <0>         0.5396
     12 O2          2.1830   -0.5781   -2.1727 O.2       1 <0>        -0.5083
     13 N1          3.9334   -1.2786   -3.3420 N.am      1 <0>        -0.5198
     14 N2          3.1069   -1.8300   -4.3298 N.am      1 <0>        -0.4996
     15 C9          3.6516   -2.4499   -5.3954 C.2       1 <0>         0.5790
     16 O3          4.8596   -2.5306   -5.4994 O.2       1 <0>        -0.5250
     17 C10         2.7776   -3.0330   -6.4399 C.ar      1 <0>         0.0306
     18 C11         3.3389   -3.6799   -7.5402 C.ar      1 <0>         0.1194
     19 N3          2.5555   -4.1985   -8.4686 N.ar      1 <0>        -0.4360
     20 C12         1.2424   -4.1047   -8.3550 C.ar      1 <0>         0.0824
     21 C13         0.6809   -3.4613   -7.2617 C.ar      1 <0>         0.0549
     22 N4          1.4552   -2.9458   -6.3280 N.ar      1 <0>        -0.4133
     23 H3         -0.8920    1.9726    0.0252 H         1 <0>         0.1435
     24 H4          1.6822    2.7903    0.0004 H         1 <0>         0.1426
     25 H5         -0.8653   -0.6475    0.0072 H         1 <0>         0.1964
     26 H6          5.2164   -0.7535    0.7141 H         1 <0>         0.1205
     27 H7          3.6318   -1.6019    0.3010 H         1 <0>         0.1091
     28 H8          4.8977   -1.3430   -3.4251 H         1 <0>         0.4335
     29 H9          2.1426   -1.7656   -4.2468 H         1 <0>         0.4428
     30 H10         4.4122   -3.7564   -7.6334 H         1 <0>         0.1864
     31 H11         0.6045   -4.5297   -9.1157 H         1 <0>         0.1819
     32 H12        -0.3929   -3.3864   -7.1734 H         1 <0>         0.1829
@<TRIPOS>BOND
     1    1    5 2
     2    1    2 1
     3    1   23 1
     4    2    3 2
     5    2   24 1
     6    3    4 1
     7    3    6 1
     8    4    5 1
     9    5   25 1
    10    6    7 1
    11    6    9 1
    12    6    8 1
    13    8    9 1
    14    8   26 1
    15    8   27 1
    16    9   10 1
    17    9   11 1
    18   11   12 2
    19   11   13 am
    20   13   14 1
    21   13   28 1
    22   14   15 am
    23   14   29 1
    24   15   16 2
    25   15   17 1
    26   17   22 ar
    27   17   18 ar
    28   18   19 ar
    29   18   30 1
    30   19   20 ar
    31   20   21 ar
    32   20   31 1
    33   21   22 ar
    34   21   32 1
@<TRIPOS>MOLECULE
ZINC58232394
   35    36     0     0     0
SMALL
USER_CHARGES

@<TRIPOS>ATOM
      1 C1         -0.0178    1.4608    0.0101 C.3       1 <0>         0.0916
      2 N1          0.0021   -0.0041    0.0020 N.pl3     1 <0>        -1.0033
      3 C2          0.0241   -0.7433    1.2666 C.3       1 <0>         0.0987
      4 S1         -0.0004   -0.8243   -1.4366 S.o2      1 <0>         2.7556
      5 O1         -0.5312   -2.1147   -1.1675 O.2       1 <0>        -1.0121
      6 O2         -0.5723    0.0488   -2.4009 O.2       1 <0>        -1.0140
      7 N2          1.5806   -1.0453   -1.8769 N.2       1 <0>        -1.0215
      8 C3          1.8859   -1.7110   -3.0548 C.2       1 <0>         0.4452
      9 N3          1.0835   -2.2404   -3.9686 N.2       1 <0>        -0.4308
     10 N4          1.5346   -2.8182   -4.9950 N.2       1 <0>        -0.1987
     11 C4          2.8268   -2.9330   -5.2253 C.2       1 <0>        -0.1014
     12 S2          3.4763   -2.0954   -3.7822 S.3       1 <0>        -0.1166
     13 C5          3.5513   -3.5791   -6.3779 C.3       1 <0>         0.0336
     14 H1          4.6271   -3.4829   -6.2314 H         1 <0>         0.1028
     15 C6          3.1758   -5.0620   -6.4512 C.3       1 <0>        -0.1309
     16 C7          3.8552   -5.6908   -7.6712 C.3       1 <0>        -0.1441
     17 C8          3.4417   -4.9249   -8.9297 C.3       1 <0>        -0.0080
     18 N5          3.8516   -3.5206   -8.8091 N.4       1 <0>        -0.5029
     19 C9          3.1499   -2.8908   -7.6842 C.3       1 <0>        -0.0040
     20 H2          1.0048    1.8381    0.0023 H         1 <0>         0.0508
     21 H3         -0.5450    1.8219   -0.8730 H         1 <0>         0.0772
     22 H4         -0.5280    1.8123    0.9069 H         1 <0>         0.0688
     23 H5          0.0224   -0.0395    2.0990 H         1 <0>         0.0739
     24 H6         -0.8567   -1.3823    1.3294 H         1 <0>         0.0605
     25 H7          0.9230   -1.3581    1.3125 H         1 <0>         0.0566
     26 H8          3.5112   -5.5681   -5.5460 H         1 <0>         0.0949
     27 H9          2.0943   -5.1599   -6.5456 H         1 <0>         0.0911
     28 H10         4.9375   -5.6384   -7.5523 H         1 <0>         0.0869
     29 H11         3.5484   -6.7327   -7.7619 H         1 <0>         0.1112
     30 H12         3.9235   -5.3701   -9.8002 H         1 <0>         0.1292
     31 H13         2.3594   -4.9781   -9.0477 H         1 <0>         0.1309
     32 H14         4.8471   -3.4743   -8.6508 H         1 <0>         0.4250
     33 H15         2.0738   -2.9867   -7.8291 H         1 <0>         0.1393
     34 H16         3.4163   -1.8350   -7.6348 H         1 <0>         0.1352
     35 H17         3.6255   -3.0309   -9.6618 H         1 <0>         0.4294
@<TRIPOS>BOND
     1    1    2 1
     2    1   20 1
     3    1   21 1
     4    1   22 1
     5    2    3 1
     6    2    4 1
     7    3   23 1
     8    3   24 1
     9    3   25 1
    10    4    5 2
    11    4    6 2
    12    4    7 1
    13    7    8 1
    14    8   12 1
    15    8    9 2
    16    9   10 1
    17   10   11 2
    18   11   12 1
    19   11   13 1
    20   13   14 1
    21   13   19 1
    22   13   15 1
    23   15   16 1
    24   15   26 1
    25   15   27 1
    26   16   17 1
    27   16   28 1
    28   16   29 1
    29   17   18 1
    30   17   30 1
    31   17   31 1
    32   18   19 1
    33   18   32 1
    34   18   35 1
    35   19   33 1
    36   19   34 1
@<TRIPOS>MOLECULE
ZINC65621815
   43    43     0     0     0
SMALL
USER_CHARGES

@<TRIPOS>ATOM
      1 C1         -0.0187    1.5258    0.0104 C.3       1 <0>        -0.1459
      2 C2          0.0021   -0.0041    0.0020 C.3       1 <0>         0.0708
      3 C3         -1.4356   -0.5357    0.0193 C.3       1 <0>         0.0719
      4 N1         -1.3885   -1.9954    0.1998 N.am      1 <0>        -0.6089
      5 C4         -0.5748   -2.5300    1.3032 C.3       1 <0>         0.0892
      6 C5          0.8209   -1.9011    1.2234 C.3       1 <0>         0.1004
      7 O1          0.6934   -0.4786    1.1599 O.3       1 <0>        -0.3647
      8 C6          1.5381   -2.4063   -0.0301 C.3       1 <0>        -0.1760
      9 C7          1.6271   -2.2870    2.4652 C.3       1 <0>        -0.1382
     10 C8         -2.0708   -2.8183   -0.6210 C.2       1 <0>         0.5131
     11 O2         -2.0193   -4.0188   -0.4560 O.2       1 <0>        -0.5309
     12 C9         -2.8977   -2.2469   -1.7438 C.3       1 <0>         0.1013
     13 N2         -3.5355   -3.3380   -2.4848 N.am      1 <0>        -0.7142
     14 C10        -4.3285   -3.0631   -3.5393 C.2       1 <0>         0.5155
     15 O3         -4.5141   -1.9125   -3.8749 O.2       1 <0>        -0.5361
     16 C11        -4.9846   -4.1854   -4.3016 C.3       1 <0>         0.0995
     17 N3         -5.7885   -3.6299   -5.3931 N.am      1 <0>        -0.7212
     18 C12        -6.4708   -4.4528   -6.2139 C.2       1 <0>         0.5138
     19 O4         -6.4193   -5.6533   -6.0488 O.2       1 <0>        -0.5463
     20 C13        -7.2977   -3.8814   -7.3367 C.3       1 <0>        -0.1698
     21 H1          1.0039    1.9031    0.0027 H         1 <0>         0.0705
     22 H2         -0.5459    1.8868   -0.8726 H         1 <0>         0.0759
     23 H3         -0.5289    1.8773    0.9072 H         1 <0>         0.0679
     24 H4          0.5106   -0.3563   -0.8954 H         1 <0>         0.0691
     25 H5         -1.9852   -0.0814    0.8437 H         1 <0>         0.0861
     26 H6         -1.9262   -0.2982   -0.9246 H         1 <0>         0.0969
     27 H7         -1.0377   -2.2764    2.2569 H         1 <0>         0.0801
     28 H8         -0.4954   -3.6130    1.2095 H         1 <0>         0.1044
     29 H9          0.9639   -2.1288   -0.9140 H         1 <0>         0.0577
     30 H10         2.5304   -1.9588   -0.0862 H         1 <0>         0.0682
     31 H11         1.6310   -3.4914    0.0169 H         1 <0>         0.0702
     32 H12         1.7201   -3.3719    2.5154 H         1 <0>         0.0757
     33 H13         2.6193   -1.8396    2.4078 H         1 <0>         0.0707
     34 H14         1.1161   -1.9245    3.3572 H         1 <0>         0.0677
     35 H15        -3.6643   -1.5901   -1.3327 H         1 <0>         0.1035
     36 H16        -2.2546   -1.6786   -2.4158 H         1 <0>         0.1022
     37 H17        -3.3871   -4.2582   -2.2165 H         1 <0>         0.4168
     38 H18        -4.2180   -4.8422   -4.7127 H         1 <0>         0.1031
     39 H19        -5.6277   -4.7537   -3.6296 H         1 <0>         0.1032
     40 H20        -5.8296   -2.6698   -5.5251 H         1 <0>         0.4131
     41 H21        -7.2218   -2.7941   -7.3268 H         1 <0>         0.0781
     42 H22        -6.9298   -4.2626   -8.2893 H         1 <0>         0.0978
     43 H23        -8.3394   -4.1742   -7.2061 H         1 <0>         0.0978
@<TRIPOS>BOND
     1    1    2 1
     2    1   21 1
     3    1   22 1
     4    1   23 1
     5    2    7 1
     6    2    3 1
     7    2   24 1
     8    3    4 1
     9    3   25 1
    10    3   26 1
    11    4    5 1
    12    4   10 am
    13    5    6 1
    14    5   27 1
    15    5   28 1
    16    6    7 1
    17    6    8 1
    18    6    9 1
    19    8   29 1
    20    8   30 1
    21    8   31 1
    22    9   32 1
    23    9   33 1
    24    9   34 1
    25   10   11 2
    26   10   12 1
    27   12   13 1
    28   12   35 1
    29   12   36 1
    30   13   14 am
    31   13   37 1
    32   14   15 2
    33   14   16 1
    34   16   17 1
    35   16   38 1
    36   16   39 1
    37   17   18 am
    38   17   40 1
    39   18   19 2
    40   18   20 1
    41   20   41 1
    42   20   42 1
    43   20   43 1
@<TRIPOS>MOLECULE
ZINC35384212
   32    32     0     0     0
SMALL
USER_CHARGES

@<TRIPOS>ATOM
      1 C1         -0.0189    1.5406    0.0105 C.3       1 <0>        -0.1302
      2 C2          1.4904    1.8764   -0.0021 C.3       1 <0>        -0.1521
      3 C3          2.1475    0.6541    0.6002 C.2       1 <0>         0.5218
      4 O1          3.2823    0.6144    1.0264 O.2       1 <0>        -0.5293
      5 N1          1.2905   -0.3814    0.5948 N.am      1 <0>        -0.6047
      6 C4          0.0021   -0.0041    0.0020 C.3       1 <0>         0.1042
      7 C5          1.6026   -1.7154    1.1138 C.3       1 <0>         0.1094
      8 C6          1.2329   -1.7857    2.5731 C.2       1 <0>         0.4952
      9 O2          0.7558   -0.8170    3.1252 O.2       1 <0>        -0.5330
     10 N2          1.4326   -2.9252    3.2647 N.am      1 <0>        -0.7129
     11 C7          1.0732   -2.9935    4.6833 C.3       1 <0>         0.1010
     12 C8          1.3942   -4.3657    5.2172 C.2       1 <0>         0.4975
     13 O3          1.8757   -5.2040    4.4849 O.2       1 <0>        -0.5601
     14 N3          1.1462   -4.6614    6.5086 N.am      1 <0>        -0.6905
     15 C9          1.4582   -5.9953    7.0276 C.3       1 <0>         0.0499
     16 C10         1.0886   -6.0656    8.4869 C.2       1 <0>         0.4899
     17 O4          0.6089   -5.0918    9.0419 O.co2     1 <0>        -0.6905
     18 O5          1.2692   -7.0964    9.1125 O.co2     1 <0>        -0.6866
     19 H1         -0.4952    1.9193    0.9148 H         1 <0>         0.0848
     20 H2         -0.5124    1.9289   -0.8804 H         1 <0>         0.0905
     21 H3          1.8381    2.0322   -1.0234 H         1 <0>         0.1039
     22 H4          1.6904    2.7569    0.6085 H         1 <0>         0.1027
     23 H5         -0.8187   -0.3957    0.6029 H         1 <0>         0.0805
     24 H6         -0.0665   -0.3766   -1.0200 H         1 <0>         0.0740
     25 H7          1.0357   -2.4630    0.5590 H         1 <0>         0.1127
     26 H8          2.6691   -1.9095    0.9994 H         1 <0>         0.1149
     27 H9          1.8142   -3.7000    2.8232 H         1 <0>         0.4123
     28 H10         1.6401   -2.2460    5.2381 H         1 <0>         0.0982
     29 H11         0.0067   -2.7995    4.7977 H         1 <0>         0.0984
     30 H12         0.7610   -3.9909    7.0943 H         1 <0>         0.4114
     31 H13         0.8913   -6.7429    6.4728 H         1 <0>         0.0682
     32 H14         2.5247   -6.1894    6.9132 H         1 <0>         0.0683
@<TRIPOS>BOND
     1    1    6 1
     2    1    2 1
     3    1   19 1
     4    1   20 1
     5    2    3 1
     6    2   21 1
     7    2   22 1
     8    3    4 2
     9    3    5 am
    10    5    6 1
    11    5    7 1
    12    6   23 1
    13    6   24 1
    14    7    8 1
    15    7   25 1
    16    7   26 1
    17    8    9 2
    18    8   10 am
    19   10   11 1
    20   10   27 1
    21   11   12 1
    22   11   28 1
    23   11   29 1
    24   12   13 2
    25   12   14 am
    26   14   15 1
    27   14   30 1
    28   15   16 1
    29   15   31 1
    30   15   32 1
    31   16   17 2
    32   16   18 1
@<TRIPOS>MOLECULE
ZINC37630384
   31    31     0     0     0
SMALL
USER_CHARGES

@<TRIPOS>ATOM
      1 C1         -0.4218    1.2492   -0.2756 C.ar      1 <0>        -0.1420
      2 C2          0.7060    2.0405   -0.1579 C.ar      1 <0>        -0.0977
      3 C3          1.9519    1.4545   -0.0090 C.ar      1 <0>         0.0658
      4 C4          2.0687    0.0680    0.0221 C.ar      1 <0>         0.1321
      5 C5          0.9381   -0.7232   -0.0960 C.ar      1 <0>        -0.1726
      6 C6         -0.3080   -0.1323   -0.2449 C.ar      1 <0>         0.1386
      7 O1         -1.4186   -0.9084   -0.3604 O.3       1 <0>        -0.4894
      8 C7          1.0616   -2.2247   -0.0632 C.3       1 <0>         0.0456
      9 N1          1.1188   -2.6810    1.3320 N.4       1 <0>        -0.3296
     10 C8         -0.1631   -2.4000    1.9921 C.3       1 <0>        -0.0788
     11 C9         -0.0640   -2.7547    3.4534 C.2       1 <0>         0.4876
     12 O2          0.9779   -3.2003    3.9032 O.co2     1 <0>        -0.6671
     13 O3         -1.0258   -2.5961    4.1857 O.co2     1 <0>        -0.6589
     14 C10         1.3797   -4.1263    1.3642 C.3       1 <0>        -0.0851
     15 C11         2.7635   -4.3989    0.8332 C.2       1 <0>         0.4937
     16 O4          3.5056   -3.4708    0.5605 O.co2     1 <0>        -0.6735
     17 O5          3.1408   -5.5476    0.6762 O.co2     1 <0>        -0.6617
     18 O6          3.2914   -0.5092    0.1677 O.3       1 <0>        -0.4624
     19 O7          3.0614    2.2339    0.1064 O.3       1 <0>        -0.4841
     20 H1         -1.3932    1.7079   -0.3872 H         1 <0>         0.1416
     21 H2          0.6152    3.1164   -0.1823 H         1 <0>         0.1413
     22 H3         -1.6406   -1.1442   -1.2716 H         1 <0>         0.3960
     23 H4          0.1981   -2.6712   -0.5563 H         1 <0>         0.1134
     24 H5          1.9719   -2.5258   -0.5816 H         1 <0>         0.1556
     25 H6         -0.3995   -1.3408    1.8905 H         1 <0>         0.1133
     26 H7         -0.9494   -2.9940    1.5264 H         1 <0>         0.1159
     27 H8          1.3071   -4.4858    2.3907 H         1 <0>         0.1521
     28 H9          0.6451   -4.6420    0.7458 H         1 <0>         0.1037
     29 H10         3.5791   -0.5943    1.0870 H         1 <0>         0.3988
     30 H11         3.2826    2.4707    1.0174 H         1 <0>         0.3902
     31 H12         1.8595   -2.1947    1.8147 H         1 <0>         0.4177
@<TRIPOS>BOND
     1    1    6 ar
     2    1    2 ar
     3    1   20 1
     4    2    3 ar
     5    2   21 1
     6    3    4 ar
     7    3   19 1
     8    4    5 ar
     9    4   18 1
    10    5    6 ar
    11    5    8 1
    12    6    7 1
    13    7   22 1
    14    8    9 1
    15    8   23 1
    16    8   24 1
    17    9   10 1
    18    9   14 1
    19    9   31 1
    20   10   11 1
    21   10   25 1
    22   10   26 1
    23   11   12 2
    24   11   13 1
    25   14   15 1
    26   14   27 1
    27   14   28 1
    28   15   16 2
    29   15   17 1
    30   18   29 1
    31   19   30 1
@<TRIPOS>MOLECULE
ZINC40580216
   35    36     0     0     0
SMALL
USER_CHARGES

@<TRIPOS>ATOM
      1 C1         -0.0187    1.5258    0.0104 C.3       1 <0>        -0.1891
      2 C2          1.3165    0.7789   -0.0063 C.3       1 <0>        -0.1936
      3 C3          0.0021   -0.0041    0.0020 C.3       1 <0>         0.0801
      4 N1         -0.3674   -0.6924    1.2413 N.am      1 <0>        -0.7014
      5 C4         -0.8541   -1.9484    1.1952 C.2       1 <0>         0.5182
      6 O1         -0.9863   -2.5087    0.1278 O.2       1 <0>        -0.5349
      7 C5         -1.2342   -2.6564    2.4701 C.3       1 <0>         0.1253
      8 N2         -1.7322   -3.9974    2.1541 N.am      1 <0>        -0.7433
      9 C6         -2.1333   -4.8182    3.1450 C.2       1 <0>         0.7347
     10 O2         -2.0817   -4.4457    4.3012 O.2       1 <0>        -0.5742
     11 N3         -2.5914   -6.0519    2.8543 N.am      1 <0>        -0.6018
     12 C7         -2.7010   -6.6314    1.5031 C.3       1 <0>         0.0727
     13 C8         -2.6603   -8.1641    1.7245 C.3       1 <0>         0.0895
     14 H1         -1.6355   -8.5138    1.8489 H         1 <0>         0.0721
     15 C9         -3.4617   -8.3095    3.0451 C.3       1 <0>        -0.0963
     16 C10        -3.0587   -7.0450    3.8325 C.3       1 <0>         0.0845
     17 H2         -2.2572   -7.2816    4.5323 H         1 <0>         0.0710
     18 C11        -4.2524   -6.5070    4.5787 C.2       1 <0>         0.4973
     19 O3         -4.7768   -5.4663    4.2206 O.co2     1 <0>        -0.6755
     20 O4         -4.6936   -7.1125    5.5406 O.co2     1 <0>        -0.7008
     21 O5         -3.3074   -8.8537    0.6532 O.3       1 <0>        -0.5550
     22 H3         -0.3072    2.0201    0.9381 H         1 <0>         0.0988
     23 H4         -0.3248    2.0300   -0.9061 H         1 <0>         0.1035
     24 H5          1.8888    0.7918   -0.9339 H         1 <0>         0.1019
     25 H6          1.9064    0.7818    0.9103 H         1 <0>         0.0978
     26 H7         -0.2904   -0.5063   -0.9201 H         1 <0>         0.1385
     27 H8         -0.2617   -0.2442    2.0951 H         1 <0>         0.4059
     28 H9         -0.3597   -2.7364    3.1159 H         1 <0>         0.0956
     29 H10        -2.0130   -2.0908    2.9816 H         1 <0>         0.0988
     30 H11        -1.7734   -4.2946    1.2316 H         1 <0>         0.4011
     31 H12        -3.6440   -6.3399    1.0407 H         1 <0>         0.0723
     32 H13        -1.8607   -6.3149    0.8853 H         1 <0>         0.0664
     33 H14        -4.5335   -8.3194    2.8467 H         1 <0>         0.0832
     34 H15        -3.1596   -9.2083    3.5826 H         1 <0>         0.0828
     35 H16        -2.8969   -8.7118   -0.2108 H         1 <0>         0.3741
@<TRIPOS>BOND
     1    1    3 1
     2    1    2 1
     3    1   22 1
     4    1   23 1
     5    2    3 1
     6    2   24 1
     7    2   25 1
     8    3    4 1
     9    3   26 1
    10    4    5 am
    11    4   27 1
    12    5    6 2
    13    5    7 1
    14    7    8 1
    15    7   28 1
    16    7   29 1
    17    8    9 am
    18    8   30 1
    19    9   10 2
    20    9   11 am
    21   11   16 1
    22   11   12 1
    23   12   13 1
    24   12   31 1
    25   12   32 1
    26   13   14 1
    27   13   15 1
    28   13   21 1
    29   15   16 1
    30   15   33 1
    31   15   34 1
    32   16   17 1
    33   16   18 1
    34   18   19 2
    35   18   20 1
    36   21   35 1
@<TRIPOS>MOLECULE
ZINC44020125
   38    39     0     0     0
SMALL
USER_CHARGES

@<TRIPOS>ATOM
      1 C1          2.2235   -1.6035   -2.0346 C.3       1 <0>        -0.1204
      2 C2          1.1619   -1.4807   -0.9721 C.2       1 <0>         0.1627
      3 C3          0.1459   -0.6006   -1.1374 C.2       1 <0>        -0.0663
      4 C4         -0.8473   -0.4945   -0.1309 C.2       1 <0>         0.3750
      5 O1         -1.7770    0.2907   -0.2519 O.2       1 <0>        -0.5208
      6 C5         -0.7410   -1.3148    1.0145 C.2       1 <0>        -0.2893
      7 C6          0.2979   -2.1735    1.1198 C.2       1 <0>         0.1375
      8 N1          1.2298   -2.2579    0.1403 N.pl3     1 <0>        -0.4699
      9 C7          2.3384   -3.2044    0.2861 C.3       1 <0>         0.0561
     10 O2          0.0791    0.1726   -2.2554 O.3       1 <0>        -0.2864
     11 C8          0.2462    1.5810   -2.0811 C.3       1 <0>         0.2167
     12 H1         -0.4066    1.9281   -1.2801 H         1 <0>         0.0711
     13 C9         -0.1141    2.3028   -3.3822 C.3       1 <0>         0.1087
     14 H2          0.5109    1.9269   -4.1923 H         1 <0>         0.0769
     15 C10         0.1249    3.8056   -3.2064 C.3       1 <0>         0.1253
     16 H3         -0.5357    4.1915   -2.4300 H         1 <0>         0.0691
     17 C11         1.5835    4.0352   -2.7988 C.3       1 <0>         0.0687
     18 H4          2.2428    3.6943   -3.5972 H         1 <0>         0.0673
     19 C12         1.8782    3.2465   -1.5202 C.3       1 <0>         0.0005
     20 H5          1.2469    3.6155   -0.7119 H         1 <0>         0.0627
     21 O3          1.6060    1.8614   -1.7428 O.3       1 <0>        -0.3620
     22 C13         3.3275    3.4201   -1.1453 C.2       1 <0>         0.5091
     23 O4          3.7466    4.5191   -0.8243 O.co2     1 <0>        -0.6826
     24 O5          4.0808    2.4617   -1.1631 O.co2     1 <0>        -0.6630
     25 O6          1.7999    5.4278   -2.5629 O.3       1 <0>        -0.5661
     26 O7         -0.1407    4.4792   -4.4383 O.3       1 <0>        -0.5521
     27 O8         -1.4894    2.0699   -3.6926 O.3       1 <0>        -0.5447
     28 H6          1.9670   -2.4179   -2.7121 H         1 <0>         0.0825
     29 H7          2.2863   -0.6708   -2.5950 H         1 <0>         0.1067
     30 H8          3.1852   -1.8108   -1.5651 H         1 <0>         0.0786
     31 H9         -1.4819   -1.2562    1.7981 H         1 <0>         0.1496
     32 H10         0.3836   -2.8027    1.9934 H         1 <0>         0.1651
     33 H11         3.1695   -2.7151    0.7942 H         1 <0>         0.0825
     34 H12         2.0089   -4.0624    0.8720 H         1 <0>         0.0886
     35 H13         2.6618   -3.5398   -0.6993 H         1 <0>         0.0925
     36 H14         2.7045    5.6464   -2.3003 H         1 <0>         0.4012
     37 H15        -0.0093    5.4365   -4.3994 H         1 <0>         0.3849
     38 H16        -1.7128    1.1368   -3.8131 H         1 <0>         0.3838
@<TRIPOS>BOND
     1    1    2 1
     2    1   28 1
     3    1   29 1
     4    1   30 1
     5    2    8 1
     6    2    3 2
     7    3    4 1
     8    3   10 1
     9    4    5 2
    10    4    6 1
    11    6    7 2
    12    6   31 1
    13    7    8 1
    14    7   32 1
    15    8    9 1
    16    9   33 1
    17    9   34 1
    18    9   35 1
    19   10   11 1
    20   11   12 1
    21   11   21 1
    22   11   13 1
    23   13   14 1
    24   13   15 1
    25   13   27 1
    26   15   16 1
    27   15   17 1
    28   15   26 1
    29   17   18 1
    30   17   19 1
    31   17   25 1
    32   19   20 1
    33   19   21 1
    34   19   22 1
    35   22   23 2
    36   22   24 1
    37   25   36 1
    38   26   37 1
    39   27   38 1
@<TRIPOS>MOLECULE
ZINC50603851
   37    38     0     0     0
SMALL
USER_CHARGES

@<TRIPOS>ATOM
      1 C1         -0.0188    1.5335    0.0105 C.3       1 <0>        -0.1182
      2 C2          1.4289    2.0809   -0.0004 C.3       1 <0>        -0.5762
      3 S1          2.3583    0.7478   -0.8615 S.o2      1 <0>         2.3669
      4 O1          2.7805    1.2249   -2.1317 O.2       1 <0>        -0.9420
      5 O2          3.3165    0.2000    0.0335 O.2       1 <0>        -0.9394
      6 C3          0.9956   -0.4689   -1.1008 C.3       1 <0>        -0.5700
      7 C4          0.0021   -0.0041    0.0020 C.3       1 <0>        -0.1105
      8 H1          0.3313   -0.3731    0.9734 H         1 <0>         0.1034
      9 C5         -1.3983   -0.5382   -0.3056 C.3       1 <0>         0.1579
     10 N1         -1.3990   -1.9990   -0.1949 N.am      1 <0>        -0.7552
     11 C6         -2.5322   -2.6916   -0.4240 C.2       1 <0>         0.7308
     12 O3         -3.5540   -2.1041   -0.7226 O.2       1 <0>        -0.5685
     13 N2         -2.5329   -4.0355   -0.3222 N.am      1 <0>        -0.6022
     14 C7         -1.3720   -4.8706    0.0364 C.3       1 <0>         0.0725
     15 C8         -1.6823   -6.2622   -0.5693 C.3       1 <0>         0.0871
     16 H2         -1.1551   -7.0493   -0.0303 H         1 <0>         0.0755
     17 C9         -3.2142   -6.3648   -0.3453 C.3       1 <0>        -0.0973
     18 C10        -3.6929   -4.9111   -0.5441 C.3       1 <0>         0.0883
     19 H3         -4.0663   -4.7814   -1.5599 H         1 <0>         0.0676
     20 C11        -4.7782   -4.5856    0.4495 C.2       1 <0>         0.4925
     21 O4         -4.6168   -3.6852    1.2555 O.co2     1 <0>        -0.6735
     22 O5         -5.8177   -5.2228    0.4474 O.co2     1 <0>        -0.7030
     23 O6         -1.3640   -6.2971   -1.9620 O.3       1 <0>        -0.5530
     24 H4         -0.5313    1.8835    0.9065 H         1 <0>         0.1012
     25 H5         -0.5483    1.8930   -0.8718 H         1 <0>         0.0923
     26 H6          1.4848    3.0146   -0.5601 H         1 <0>         0.1408
     27 H7          1.7988    2.2155    1.0160 H         1 <0>         0.1384
     28 H8          0.5543   -0.3764   -2.0932 H         1 <0>         0.1439
     29 H9          1.3394   -1.4869   -0.9179 H         1 <0>         0.1402
     30 H10        -2.1110   -0.1196    0.4050 H         1 <0>         0.0744
     31 H11        -1.6827   -0.2504   -1.3177 H         1 <0>         0.0697
     32 H12        -0.5839   -2.4677    0.0433 H         1 <0>         0.3874
     33 H13        -0.4610   -4.4614   -0.4002 H         1 <0>         0.0645
     34 H14        -1.2759   -4.9413    1.1199 H         1 <0>         0.0701
     35 H15        -3.6682   -7.0270   -1.0826 H         1 <0>         0.0857
     36 H16        -3.4341   -6.7044    0.6668 H         1 <0>         0.0870
     37 H17        -0.4300   -6.1391   -2.1560 H         1 <0>         0.3711
@<TRIPOS>BOND
     1    1    7 1
     2    1    2 1
     3    1   24 1
     4    1   25 1
     5    2    3 1
     6    2   26 1
     7    2   27 1
     8    3    4 2
     9    3    5 2
    10    3    6 1
    11    6    7 1
    12    6   28 1
    13    6   29 1
    14    7    8 1
    15    7    9 1
    16    9   10 1
    17    9   30 1
    18    9   31 1
    19   10   11 am
    20   10   32 1
    21   11   12 2
    22   11   13 am
    23   13   18 1
    24   13   14 1
    25   14   15 1
    26   14   33 1
    27   14   34 1
    28   15   16 1
    29   15   17 1
    30   15   23 1
    31   17   18 1
    32   17   35 1
    33   17   36 1
    34   18   19 1
    35   18   20 1
    36   20   21 2
    37   20   22 1
    38   23   37 1
@<TRIPOS>MOLECULE
ZINC13362504
   45    47     0     0     0
SMALL
USER_CHARGES
2-fluoro-5-[[[4-(2-thienylsulfonylamino)benzoyl]amino]sulfamoyl]benzoic acid
@<TRIPOS>ATOM
      1 C1          3.8511   -3.0170   -3.9679 C.2       1 <0>        -0.1954
      2 C2          3.0172   -3.4217   -2.9424 C.2       1 <0>        -0.0007
      3 C3          1.9566   -2.6449   -2.6123 C.2       1 <0>        -0.7727
      4 S1          2.1108   -1.2969   -3.7726 S.3       1 <0>         0.1767
      5 C4          3.5835   -1.8554   -4.6130 C.2       1 <0>        -0.1271
      6 S2          0.7376   -2.9026   -1.3664 S.o2      1 <0>         2.7255
      7 O1          0.7784   -4.2845   -1.0379 O.2       1 <0>        -0.9449
      8 O2         -0.4472   -2.2617   -1.8187 O.2       1 <0>        -0.9362
      9 N1          1.2348   -2.0807   -0.0175 N.pl3     1 <0>        -1.0604
     10 C5          1.3386   -0.6944   -0.0469 C.ar      1 <0>         0.1449
     11 C6          0.1888    0.0893   -0.0033 C.ar      1 <0>        -0.1082
     12 C7          0.2882    1.4615   -0.0313 C.ar      1 <0>        -0.0438
     13 C8          1.5455    2.0684   -0.1042 C.ar      1 <0>        -0.1165
     14 C9          2.6981    1.2787   -0.1483 C.ar      1 <0>        -0.0793
     15 C10         2.5921   -0.0930   -0.1194 C.ar      1 <0>        -0.1146
     16 C11         1.6556    3.5391   -0.1349 C.2       1 <0>         0.5640
     17 O3          0.6521    4.2249   -0.0968 O.2       1 <0>        -0.5116
     18 N2          2.8684    4.1228   -0.2051 N.am      1 <0>        -0.5044
     19 N3          2.9729    5.5196   -0.2343 N.pl3     1 <0>        -0.9031
     20 S3          3.9122    6.3031    0.8820 S.o2      1 <0>         2.6995
     21 O4          3.9306    7.6736    0.5071 O.2       1 <0>        -0.9312
     22 O5          3.4705    5.8690    2.1609 O.2       1 <0>        -0.9442
     23 C12         5.5587    5.7060    0.6885 C.ar      1 <0>        -0.7159
     24 C13         5.9834    4.6058    1.4141 C.ar      1 <0>        -0.0044
     25 C14         7.2709    4.1259    1.2656 C.ar      1 <0>        -0.1919
     26 C15         8.1485    4.7501    0.3977 C.ar      1 <0>         0.1913
     27 C16         7.7267    5.8654   -0.3336 C.ar      1 <0>        -0.1691
     28 C17         6.4212    6.3392   -0.1804 C.ar      1 <0>         0.0556
     29 C18         8.6555    6.5379   -1.2624 C.2       1 <0>         0.4882
     30 O6          9.7899    6.1234   -1.3931 O.co2     1 <0>        -0.6129
     31 F1          9.4086    4.2840    0.2564 F         1 <0>        -0.1087
     32 H1          4.7028   -3.6176   -4.2511 H         1 <0>         0.1463
     33 H2          3.2077   -4.3432   -2.4124 H         1 <0>         0.1481
     34 H3          4.1198   -1.3903   -5.4270 H         1 <0>         0.1980
     35 H4          1.4537   -2.5663    0.7932 H         1 <0>         0.4302
     36 H5         -0.7822   -0.3801    0.0530 H         1 <0>         0.1459
     37 H6         -0.6043    2.0689   -0.0016 H         1 <0>         0.1489
     38 H7          3.6708    1.7446   -0.2042 H         1 <0>         0.1357
     39 H8          3.4823   -0.7037   -0.1528 H         1 <0>         0.1389
     40 H9          3.6688    3.5758   -0.2355 H         1 <0>         0.4197
     41 H10         2.4951    6.0277   -0.9084 H         1 <0>         0.4307
     42 H11         5.3034    4.1173    2.0964 H         1 <0>         0.1457
     43 H12         7.5938    3.2646    1.8315 H         1 <0>         0.1432
     44 H13         6.0887    7.2000   -0.7415 H         1 <0>         0.1599
     45 O7          8.2454    7.6116   -1.9653 O.co2     1 <0>        -0.7400
@<TRIPOS>BOND
     1    1    5 2
     2    1    2 1
     3    1   32 1
     4    2    3 2
     5    2   33 1
     6    3    4 1
     7    3    6 1
     8    4    5 1
     9    5   34 1
    10    6    7 2
    11    6    8 2
    12    6    9 1
    13    9   10 1
    14    9   35 1
    15   10   15 ar
    16   10   11 ar
    17   11   12 ar
    18   11   36 1
    19   12   13 ar
    20   12   37 1
    21   13   14 ar
    22   13   16 1
    23   14   15 ar
    24   14   38 1
    25   15   39 1
    26   16   17 2
    27   16   18 am
    28   18   19 1
    29   18   40 1
    30   19   20 1
    31   19   41 1
    32   20   21 2
    33   20   22 2
    34   20   23 1
    35   23   28 ar
    36   23   24 ar
    37   24   25 ar
    38   24   42 1
    39   25   26 ar
    40   25   43 1
    41   26   27 ar
    42   26   31 1
    43   27   28 ar
    44   27   29 1
    45   28   44 1
    46   29   30 2
    47   29   45 1
@<TRIPOS>MOLECULE
ZINC22059311
   56    58     0     0     0
SMALL
USER_CHARGES
(2R,3R,4S,5R,6S)-6-[2-[4-(4-chlorobenzoyl)phenoxy]-2-methyl-propanoyl]oxy-3,4,5-trihydroxy-tetrahydropyran-2-carboxylic acid
@<TRIPOS>ATOM
      1 C1         -3.5644   -3.9521   -1.0356 C.3       1 <0>        -0.1979
      2 C2         -3.4965   -3.3330    0.3619 C.3       1 <0>         0.1287
      3 C3         -2.6790   -4.2411    1.2828 C.3       1 <0>        -0.1359
      4 C4         -2.8402   -1.9789    0.2800 C.2       1 <0>         0.4347
      5 O1         -3.4429   -0.9930    0.6331 O.2       1 <0>        -0.4681
      6 O2         -1.5859   -1.8679   -0.1851 O.3       1 <0>        -0.3428
      7 C5         -1.0173   -0.5329   -0.2359 C.3       1 <0>         0.2588
      8 H1         -1.1433   -0.0647    0.7515 H         1 <0>         0.1155
      9 C6          0.4498   -0.6187   -0.6714 C.3       1 <0>         0.1196
     10 H2          1.0494   -1.2057    0.0399 H         1 <0>         0.0780
     11 C7          0.5187   -1.2071   -2.0840 C.3       1 <0>         0.0985
     12 H3          1.5579   -1.2957   -2.4336 H         1 <0>         0.0578
     13 C8         -0.3198   -0.3414   -3.0294 C.3       1 <0>         0.0894
     14 H4          0.1158    0.6613   -3.1512 H         1 <0>         0.0566
     15 C9         -1.7552   -0.2670   -2.5023 C.3       1 <0>         0.0230
     16 H5         -2.2170   -1.2631   -2.4348 H         1 <0>         0.0643
     17 O3         -1.7469    0.2605   -1.1743 O.3       1 <0>        -0.3351
     18 C10        -2.5723    0.6313   -3.3948 C.2       1 <0>         0.4744
     19 O4         -3.0196    1.6672   -2.9627 O.co2     1 <0>        -0.6015
     20 O5         -2.8033    0.2805   -4.6697 O.co2     1 <0>        -0.7473
     21 O6         -0.3187   -0.9215   -4.3353 O.3       1 <0>        -0.6081
     22 O7          0.0030   -2.5398   -2.0724 O.3       1 <0>        -0.5755
     23 O8          1.0251    0.6894   -0.6704 O.3       1 <0>        -0.5705
     24 O9         -4.8188   -3.1906    0.8847 O.3       1 <0>        -0.2827
     25 C11        -5.6841   -2.4265    0.1716 C.ar      1 <0>         0.1668
     26 C12        -5.2322   -1.7167   -0.9354 C.ar      1 <0>        -0.1923
     27 C13        -6.1077   -0.9442   -1.6645 C.ar      1 <0>        -0.0276
     28 C14        -7.4510   -0.8650   -1.2839 C.ar      1 <0>        -0.2043
     29 C15        -7.9001   -1.5763   -0.1667 C.ar      1 <0>        -0.0247
     30 C16        -7.0190   -2.3510    0.5533 C.ar      1 <0>        -0.1659
     31 C17        -8.3913   -0.0333   -2.0581 C.2       1 <0>         0.4517
     32 O10        -9.5837   -0.0868   -1.8258 O.2       1 <0>        -0.4598
     33 C18        -7.8846    0.8648   -3.1159 C.ar      1 <0>        -0.1597
     34 C19        -6.6737    1.5394   -2.9425 C.ar      1 <0>        -0.0586
     35 C20        -6.2033    2.3717   -3.9358 C.ar      1 <0>        -0.0866
     36 C21        -6.9344    2.5486   -5.0992 C.ar      1 <0>        -0.0085
     37 C22        -8.1387    1.8868   -5.2748 C.ar      1 <0>        -0.1246
     38 C23        -8.6171    1.0473   -4.2914 C.ar      1 <0>        -0.0654
     39 Cl1        -6.3385    3.6035   -6.3425 Cl        1 <0>        -0.0684
     40 H6         -4.1521   -3.2992   -1.6977 H         1 <0>         0.0842
     41 H7         -4.0434   -4.9405   -0.9759 H         1 <0>         0.0840
     42 H8         -2.5465   -4.0616   -1.4380 H         1 <0>         0.0980
     43 H9         -2.6302   -3.7960    2.2875 H         1 <0>         0.0713
     44 H10        -1.6611   -4.3506    0.8804 H         1 <0>         0.0972
     45 H11        -3.1580   -5.2295    1.3425 H         1 <0>         0.0837
     46 H12        -0.8718   -0.4364   -5.1531 H         1 <0>         0.4316
     47 H13        -0.0280   -3.1257   -3.0029 H         1 <0>         0.4118
     48 H14         2.0780    0.8274   -0.9574 H         1 <0>         0.4160
     49 H15        -4.1937   -1.7749   -1.2260 H         1 <0>         0.1324
     50 H16        -5.7568   -0.3967   -2.5268 H         1 <0>         0.1433
     51 H17        -8.9368   -1.5183    0.1305 H         1 <0>         0.1395
     52 H18        -7.3650   -2.9007    1.4162 H         1 <0>         0.1361
     53 H19        -6.1052    1.4061   -2.0339 H         1 <0>         0.1419
     54 H20        -5.2651    2.8904   -3.8048 H         1 <0>         0.1526
     55 H21        -8.7039    2.0285   -6.1841 H         1 <0>         0.1353
     56 H22        -9.5559    0.5317   -4.4295 H         1 <0>         0.1351
@<TRIPOS>BOND
     1    1    2 1
     2    1   40 1
     3    1   41 1
     4    1   42 1
     5    2    3 1
     6    2    4 1
     7    2   24 1
     8    3   43 1
     9    3   44 1
    10    3   45 1
    11    4    5 2
    12    4    6 1
    13    6    7 1
    14    7    8 1
    15    7   17 1
    16    7    9 1
    17    9   10 1
    18    9   11 1
    19    9   23 1
    20   11   12 1
    21   11   13 1
    22   11   22 1
    23   13   14 1
    24   13   15 1
    25   13   21 1
    26   15   16 1
    27   15   17 1
    28   15   18 1
    29   18   19 2
    30   18   20 1
    31   21   46 1
    32   22   47 1
    33   23   48 1
    34   24   25 1
    35   25   30 ar
    36   25   26 ar
    37   26   27 ar
    38   26   49 1
    39   27   28 ar
    40   27   50 1
    41   28   29 ar
    42   28   31 1
    43   29   30 ar
    44   29   51 1
    45   30   52 1
    46   31   32 2
    47   31   33 1
    48   33   38 ar
    49   33   34 ar
    50   34   35 ar
    51   34   53 1
    52   35   36 ar
    53   35   54 1
    54   36   37 ar
    55   36   39 1
    56   37   38 ar
    57   37   55 1
    58   38   56 1
@<TRIPOS>MOLECULE
ZINC39481047
   58    60     0     0     0
SMALL
USER_CHARGES

@<TRIPOS>ATOM
      1 C1          0.4753    2.0890    2.3303 C.3       1 <0>        -0.0938
      2 C2          0.5252    0.6148    2.0218 C.ar      1 <0>        -0.1691
      3 C3          0.7773    0.1889    0.7308 C.ar      1 <0>        -0.0661
      4 C4          0.8244   -1.1622    0.4411 C.ar      1 <0>        -0.2403
      5 C5          0.6190   -2.0945    1.4467 C.ar      1 <0>         0.2399
      6 C6          0.3652   -1.6649    2.7491 C.ar      1 <0>         0.1201
      7 C7          0.3245   -0.3080    3.0317 C.ar      1 <0>        -0.0757
      8 N1          0.1565   -2.6011    3.7692 N.pl3     1 <0>        -0.6392
      9 C8          1.2816   -3.1110    4.5676 C.3       1 <0>         0.1576
     10 C9          1.2248   -4.6423    4.5664 C.3       1 <0>         0.0371
     11 N2         -0.1038   -5.0803    5.0146 N.3       1 <0>        -0.6460
     12 C10        -1.1529   -4.6326    4.0889 C.3       1 <0>        -0.4074
     13 H1         -0.9359   -5.0027    3.0869 H         1 <0>         0.1172
     14 C11        -1.1943   -3.0962    4.0746 C.3       1 <0>         0.1817
     15 S1         -2.7583   -5.2749    4.6370 S.o2      1 <0>         2.4138
     16 O1         -2.7144   -5.4513    6.0464 O.2       1 <0>        -0.9232
     17 O2         -3.7821   -4.4665    4.0734 O.2       1 <0>        -0.9354
     18 C12        -2.8234   -6.9107    3.8557 C.3       1 <0>        -0.5854
     19 C13        -1.6296   -7.7464    4.3219 C.3       1 <0>        -0.1473
     20 C14        -4.1236   -7.6135    4.2513 C.3       1 <0>        -0.1374
     21 N3          0.6659   -3.4633    1.1555 N.2       1 <0>        -0.9425
     22 S2          0.9669   -3.9708   -0.3919 S.o2      1 <0>         2.0495
     23 O3         -0.1446   -3.5615   -1.1770 O.2       1 <0>        -0.9056
     24 O4          2.2990   -3.5803   -0.6954 O.2       1 <0>        -0.9058
     25 S3          0.9471   -6.0206   -0.3721 S.o2      1 <0>         1.7973
     26 O5          2.0586   -6.4299    0.4130 O.2       1 <0>        -0.8943
     27 O6         -0.3850   -6.4110   -0.0686 O.2       1 <0>        -0.8973
     28 C15         1.2674   -6.5605   -2.0185 C.ar      1 <0>        -0.6045
     29 C16         0.2189   -6.7578   -2.8975 C.ar      1 <0>        -0.0270
     30 C17         0.4701   -7.1814   -4.1891 C.ar      1 <0>        -0.1398
     31 C18         1.7699   -7.4073   -4.6019 C.ar      1 <0>        -0.0734
     32 C19         2.8185   -7.2091   -3.7232 C.ar      1 <0>        -0.1399
     33 C20         2.5676   -6.7814   -2.4329 C.ar      1 <0>        -0.0270
     34 H2          1.4723    2.4379    2.5993 H         1 <0>         0.0549
     35 H3          0.1248    2.6322    1.4527 H         1 <0>         0.0542
     36 H4         -0.2072    2.2632    3.1621 H         1 <0>         0.0556
     37 H5          0.9375    0.9137   -0.0536 H         1 <0>         0.1088
     38 H6          1.0208   -1.4915   -0.5686 H         1 <0>         0.0996
     39 H7          0.1323    0.0281    4.0399 H         1 <0>         0.1163
     40 H8          2.2224   -2.7791    4.1285 H         1 <0>         0.0725
     41 H9          1.2015   -2.7425    5.5903 H         1 <0>         0.0502
     42 H10         1.4087   -5.0123    3.5577 H         1 <0>         0.0561
     43 H11         1.9844   -5.0350    5.2423 H         1 <0>         0.0796
     44 H12        -0.1324   -6.0815    5.1366 H         1 <0>         0.3371
     45 H13        -1.5079   -2.7263    5.0508 H         1 <0>         0.0571
     46 H14        -1.8913   -2.7545    3.3093 H         1 <0>         0.0878
     47 H15        -2.7867   -6.7976    2.7722 H         1 <0>         0.1421
     48 H16        -1.5963   -7.7562    5.4114 H         1 <0>         0.0801
     49 H17        -1.7338   -8.7666    3.9524 H         1 <0>         0.0811
     50 H18        -0.7083   -7.3119    3.9341 H         1 <0>         0.0679
     51 H19        -4.9740   -7.0181    3.9192 H         1 <0>         0.0714
     52 H20        -4.1627   -8.5965    3.7819 H         1 <0>         0.0797
     53 H21        -4.1603   -7.7267    5.3348 H         1 <0>         0.0721
     54 H22        -0.7966   -6.5813   -2.5750 H         1 <0>         0.1428
     55 H23        -0.3491   -7.3362   -4.8756 H         1 <0>         0.1343
     56 H24         1.9662   -7.7389   -5.6108 H         1 <0>         0.1311
     57 H25         3.8340   -7.3859   -4.0456 H         1 <0>         0.1342
     58 H26         3.3870   -6.6230   -1.7475 H         1 <0>         0.1426
@<TRIPOS>BOND
     1    1    2 1
     2    1   34 1
     3    1   35 1
     4    1   36 1
     5    2    7 ar
     6    2    3 ar
     7    3    4 ar
     8    3   37 1
     9    4    5 ar
    10    4   38 1
    11    5    6 ar
    12    5   21 1
    13    6    7 ar
    14    6    8 1
    15    7   39 1
    16    8   14 1
    17    8    9 1
    18    9   10 1
    19    9   40 1
    20    9   41 1
    21   10   11 1
    22   10   42 1
    23   10   43 1
    24   11   12 1
    25   11   44 1
    26   12   13 1
    27   12   14 1
    28   12   15 1
    29   14   45 1
    30   14   46 1
    31   15   16 2
    32   15   17 2
    33   15   18 1
    34   18   19 1
    35   18   20 1
    36   18   47 1
    37   19   48 1
    38   19   49 1
    39   19   50 1
    40   20   51 1
    41   20   52 1
    42   20   53 1
    43   21   22 1
    44   22   23 2
    45   22   24 2
    46   22   25 1
    47   25   26 2
    48   25   27 2
    49   25   28 1
    50   28   33 ar
    51   28   29 ar
    52   29   30 ar
    53   29   54 1
    54   30   31 ar
    55   30   55 1
    56   31   32 ar
    57   31   56 1
    58   32   33 ar
    59   32   57 1
    60   33   58 1
@<TRIPOS>MOLECULE
ZINC40096432
   67    70     0     0     0
SMALL
USER_CHARGES

@<TRIPOS>ATOM
      1 C1          0.0377    2.9675    1.0940 C.3       1 <0>        -0.1734
      2 C2         -0.2412    1.4720    1.2570 C.3       1 <0>         0.1238
      3 N1          0.6123    0.9287    2.3165 N.pl3     1 <0>        -0.6327
      4 C3          0.1408    0.9180    3.7036 C.3       1 <0>         0.1211
      5 C4         -0.5993   -0.3921    3.9805 C.3       1 <0>        -0.1708
      6 C5          1.8754    0.4209    2.0043 C.ar      1 <0>         0.2065
      7 C6          2.3263    0.4356    0.6905 C.ar      1 <0>        -0.1974
      8 C7          3.5760   -0.0668    0.3854 C.ar      1 <0>        -0.0700
      9 C8          4.3780   -0.5845    1.3859 C.ar      1 <0>        -0.1244
     10 C9          3.9323   -0.6006    2.6948 C.ar      1 <0>        -0.0426
     11 C10         2.6859   -0.0946    3.0078 C.ar      1 <0>        -0.1944
     12 C11         5.7407   -1.1328    1.0490 C.3       1 <0>         0.2702
     13 H1          5.8213   -1.3018   -0.0248 H         1 <0>         0.0621
     14 C12         6.8144   -0.1729    1.5058 C.2       1 <0>        -0.5013
     15 C13         7.5745   -0.8373    2.4071 C.2       1 <0>         0.2648
     16 C14         7.0475   -2.2084    2.5699 C.2       1 <0>         0.5152
     17 O1          7.5137   -3.0512    3.3106 O.2       1 <0>        -0.5219
     18 N2          5.9743   -2.3861    1.7760 N.am      1 <0>        -0.6101
     19 C15         5.1801   -3.6116    1.6589 C.3       1 <0>         0.1414
     20 C16         5.7648   -4.4946    0.5546 C.3       1 <0>         0.0438
     21 O2          7.0732   -4.9268    0.9330 O.3       1 <0>        -0.3569
     22 C17         7.7119   -5.7621   -0.0346 C.3       1 <0>         0.0623
     23 C18         9.0986   -6.1624    0.4731 C.3       1 <0>         0.0785
     24 O3          8.9623   -6.9735    1.6416 O.3       1 <0>        -0.5636
     25 O4          8.6468   -0.3274    3.0557 O.3       1 <0>        -0.6579
     26 C19         6.9979    1.2113    1.0583 C.2       1 <0>         0.5064
     27 O5          6.8750    2.1280    1.8493 O.2       1 <0>        -0.4740
     28 C20         7.3318    1.4930   -0.3517 C.ar      1 <0>        -0.1285
     29 C21         7.5832    0.4402   -1.2366 C.ar      1 <0>        -0.0580
     30 C22         7.8952    0.7062   -2.5508 C.ar      1 <0>        -0.1301
     31 C23         7.9614    2.0195   -3.0037 C.ar      1 <0>         0.0604
     32 C24         7.7095    3.0732   -2.1276 C.ar      1 <0>         0.0314
     33 C25         7.3919    2.8128   -0.8076 C.ar      1 <0>        -0.0668
     34 O6          7.7628    4.3638   -2.5575 O.3       1 <0>        -0.3077
     35 C26         8.4422    4.6021   -3.7950 C.3       1 <0>         0.0204
     36 C27         7.9637    3.5592   -4.8141 C.3       1 <0>         0.0210
     37 O7          8.2755    2.2583   -4.3046 O.3       1 <0>        -0.3082
     38 H2          1.0846    3.1151    0.8288 H         1 <0>         0.0611
     39 H3         -0.5973    3.3718    0.3057 H         1 <0>         0.0589
     40 H4         -0.1755    3.4812    2.0315 H         1 <0>         0.0533
     41 H5         -1.2881    1.3245    1.5222 H         1 <0>         0.0663
     42 H6         -0.0280    0.9584    0.3195 H         1 <0>         0.0729
     43 H7          0.9931    1.0033    4.3777 H         1 <0>         0.0750
     44 H8         -0.5350    1.7580    3.8641 H         1 <0>         0.0671
     45 H9         -0.9501   -0.4001    5.0125 H         1 <0>         0.0597
     46 H10        -1.4516   -0.4775    3.3064 H         1 <0>         0.0520
     47 H11         0.0764   -1.2322    3.8200 H         1 <0>         0.0596
     48 H12         1.7002    0.8391   -0.0915 H         1 <0>         0.1146
     49 H13         3.9272   -0.0557   -0.6359 H         1 <0>         0.1155
     50 H14         4.5611   -1.0057    3.4739 H         1 <0>         0.1151
     51 H15         2.3402   -0.1034    4.0309 H         1 <0>         0.1152
     52 H16         5.2027   -4.1511    2.6057 H         1 <0>         0.0838
     53 H17         4.1501   -3.3548    1.4116 H         1 <0>         0.0891
     54 H18         5.1237   -5.3637    0.4068 H         1 <0>         0.0512
     55 H19         5.8243   -3.9250   -0.3728 H         1 <0>         0.0493
     56 H20         7.1112   -6.6575   -0.1947 H         1 <0>         0.0490
     57 H21         7.8119   -5.2188   -0.9742 H         1 <0>         0.0581
     58 H22         9.6205   -6.7251   -0.3010 H         1 <0>         0.0544
     59 H23         9.6687   -5.2661    0.7175 H         1 <0>         0.0572
     60 H24         9.8038   -7.2646    2.0187 H         1 <0>         0.3761
     61 H25         7.5331   -0.5812   -0.8892 H         1 <0>         0.1447
     62 H26         8.0897   -0.1082   -3.2329 H         1 <0>         0.1342
     63 H27         7.1943    3.6287   -0.1282 H         1 <0>         0.1408
     64 H28         8.2078    5.6035   -4.1562 H         1 <0>         0.1182
     65 H29         9.5180    4.5061   -3.6482 H         1 <0>         0.0751
     66 H30         6.8868    3.6503   -4.9552 H         1 <0>         0.0756
     67 H31         8.4738    3.7135   -5.7650 H         1 <0>         0.1182
@<TRIPOS>BOND
     1    1    2 1
     2    1   38 1
     3    1   39 1
     4    1   40 1
     5    2    3 1
     6    2   41 1
     7    2   42 1
     8    3    4 1
     9    3    6 1
    10    4    5 1
    11    4   43 1
    12    4   44 1
    13    5   45 1
    14    5   46 1
    15    5   47 1
    16    6   11 ar
    17    6    7 ar
    18    7    8 ar
    19    7   48 1
    20    8    9 ar
    21    8   49 1
    22    9   10 ar
    23    9   12 1
    24   10   11 ar
    25   10   50 1
    26   11   51 1
    27   12   13 1
    28   12   18 1
    29   12   14 1
    30   14   15 2
    31   14   26 1
    32   15   16 1
    33   15   25 1
    34   16   17 2
    35   16   18 am
    36   18   19 1
    37   19   20 1
    38   19   52 1
    39   19   53 1
    40   20   21 1
    41   20   54 1
    42   20   55 1
    43   21   22 1
    44   22   23 1
    45   22   56 1
    46   22   57 1
    47   23   24 1
    48   23   58 1
    49   23   59 1
    50   24   60 1
    51   26   27 2
    52   26   28 1
    53   28   33 ar
    54   28   29 ar
    55   29   30 ar
    56   29   61 1
    57   30   31 ar
    58   30   62 1
    59   31   37 1
    60   31   32 ar
    61   32   33 ar
    62   32   34 1
    63   33   63 1
    64   34   35 1
    65   35   36 1
    66   35   64 1
    67   35   65 1
    68   36   37 1
    69   36   66 1
    70   36   67 1
@<TRIPOS>MOLECULE
ZINC63772629
   48    51     0     0     0
SMALL
USER_CHARGES

@<TRIPOS>ATOM
      1 C1         -0.0112    1.4055   -0.0173 C.ar      1 <0>        -0.0366
      2 C2          1.1738    2.1086   -0.0347 C.ar      1 <0>        -0.1559
      3 C3          2.3845    1.4326   -0.0528 C.ar      1 <0>         0.1299
      4 C4          2.4115    0.0462   -0.0536 C.ar      1 <0>        -0.1531
      5 C5          1.2338   -0.6690   -0.0358 C.ar      1 <0>        -0.0561
      6 C6          0.0090    0.0067   -0.0175 C.ar      1 <0>        -0.0624
      7 C7         -1.2520   -0.7502    0.0015 C.2       1 <0>         0.1615
      8 N1         -2.4624   -0.2631    0.0139 N.2       1 <0>        -0.2952
      9 N2         -3.4305   -1.2617    0.0305 N.2       1 <0>        -0.2930
     10 C8         -2.9173   -2.4489    0.0300 C.2       1 <0>         0.0999
     11 C9         -1.4140   -2.2575    0.0041 C.3       1 <0>        -0.1274
     12 H1         -0.9581   -2.6914    0.8940 H         1 <0>         0.1440
     13 C10        -0.8209   -2.8575   -1.2446 C.2       1 <0>         0.0377
     14 C11         0.1810   -3.7527   -1.1513 C.2       1 <0>        -0.0953
     15 C12         0.6828   -4.1342    0.1345 C.1       1 <0>         0.2252
     16 N3          1.0808   -4.4369    1.1546 N.1       1 <0>        -0.3736
     17 C13         0.7624   -4.3408   -2.3752 C.2       1 <0>         0.5690
     18 O1          0.3364   -4.0169   -3.4669 O.2       1 <0>        -0.4910
     19 N4          1.7651   -5.2366   -2.2818 N.am      1 <0>        -0.6624
     20 C14         2.2502   -5.8657   -3.4327 C.ar      1 <0>         0.1706
     21 C15         2.6727   -7.1876   -3.3777 C.ar      1 <0>        -0.1630
     22 C16         3.1508   -7.8061   -4.5162 C.ar      1 <0>        -0.0032
     23 C17         3.2095   -7.1106   -5.7100 C.ar      1 <0>        -0.6314
     24 C18         2.7899   -5.7942   -5.7681 C.ar      1 <0>        -0.0034
     25 C19         2.3050   -5.1717   -4.6346 C.ar      1 <0>        -0.1404
     26 S1          3.8206   -7.9033   -7.1601 S.o2      1 <0>         2.6357
     27 O2          4.2837   -6.8726   -8.0218 O.2       1 <0>        -1.0093
     28 O3          4.6591   -8.9631   -6.7208 O.2       1 <0>        -1.0103
     29 N5          2.5260   -8.6064   -7.9163 N.2       1 <0>        -1.0306
     30 C20         2.7105   -9.3082   -9.0973 C.2       1 <0>         0.4012
     31 N6          3.8302   -9.5231   -9.7546 N.2       1 <0>        -0.6658
     32 C21         3.8389  -10.2197  -10.8775 C.2       1 <0>         0.1000
     33 C22         2.6493  -10.6976  -11.3150 C.2       1 <0>        -0.3457
     34 S2          1.5581  -10.0988  -10.0351 S.3       1 <0>         0.0111
     35 F1          3.5427    2.1278   -0.0703 F         1 <0>        -0.1302
     36 H2         -0.9533    1.9332    0.0010 H         1 <0>         0.1491
     37 H3          1.1597    3.1885   -0.0346 H         1 <0>         0.1470
     38 H4          3.3578   -0.4743   -0.0685 H         1 <0>         0.1460
     39 H5          1.2562   -1.7488   -0.0365 H         1 <0>         0.1286
     40 H6         -3.4520   -3.3872    0.0410 H         1 <0>         0.2141
     41 H7         -1.1993   -2.5698   -2.2144 H         1 <0>         0.1738
     42 H8          2.1502   -5.4449   -1.4163 H         1 <0>         0.4111
     43 H9          2.6279   -7.7312   -2.4455 H         1 <0>         0.1311
     44 H10         3.4796   -8.8340   -4.4741 H         1 <0>         0.1437
     45 H11         2.8374   -5.2537   -6.7019 H         1 <0>         0.1435
     46 H12         1.9734   -4.1450   -4.6816 H         1 <0>         0.1453
     47 H13         4.7538  -10.3998  -11.4224 H         1 <0>         0.1457
     48 H14         2.4236  -11.2829  -12.1942 H         1 <0>         0.1706
@<TRIPOS>BOND
     1    1    6 ar
     2    1    2 ar
     3    1   36 1
     4    2    3 ar
     5    2   37 1
     6    3    4 ar
     7    3   35 1
     8    4    5 ar
     9    4   38 1
    10    5    6 ar
    11    5   39 1
    12    6    7 1
    13    7   11 1
    14    7    8 2
    15    8    9 1
    16    9   10 2
    17   10   11 1
    18   10   40 1
    19   11   12 1
    20   11   13 1
    21   13   14 2
    22   13   41 1
    23   14   15 1
    24   14   17 1
    25   15   16 3
    26   17   18 2
    27   17   19 am
    28   19   20 1
    29   19   42 1
    30   20   25 ar
    31   20   21 ar
    32   21   22 ar
    33   21   43 1
    34   22   23 ar
    35   22   44 1
    36   23   24 ar
    37   23   26 1
    38   24   25 ar
    39   24   45 1
    40   25   46 1
    41   26   27 2
    42   26   28 2
    43   26   29 1
    44   29   30 1
    45   30   34 1
    46   30   31 2
    47   31   32 1
    48   32   33 2
    49   32   47 1
    50   33   34 1
    51   33   48 1
@<TRIPOS>MOLECULE
ZINC19723992
   22    24     0     0     0
SMALL
USER_CHARGES
3-(3,5-dichlorophenyl)-6H-triazolo[4,5-e]pyrimidine-7-thione
@<TRIPOS>ATOM
      1 C1         -0.7479    7.2350    0.7377 C.ar      1 <0>        -0.1021
      2 C2         -0.9688    6.0528    0.0442 C.ar      1 <0>         0.1962
      3 C3         -2.1625    5.8641   -0.6390 C.ar      1 <0>        -0.0983
      4 C4         -3.1322    6.8492   -0.6190 C.ar      1 <0>        -0.0050
      5 C5         -2.9097    8.0267    0.0730 C.ar      1 <0>        -0.1087
      6 C6         -1.7187    8.2191    0.7508 C.ar      1 <0>        -0.0080
      7 Cl1        -1.4432    9.6977    1.6178 Cl        1 <0>        -0.0488
      8 Cl2        -4.6274    6.6119   -1.4686 Cl        1 <0>        -0.0470
      9 N1          0.0141    5.0538    0.0291 N.pl3     1 <0>        -0.3529
     10 C7         -0.1943    3.7045    0.0238 C.ar      1 <0>         0.3194
     11 C8          1.0772    3.1166    0.0085 C.ar      1 <0>        -0.1257
     12 C9          1.1534    1.6545   -0.0001 C.ar      1 <0>         0.4008
     13 S1          2.6620    0.8454   -0.0183 S.3       1 <0>        -0.6728
     14 N2         -0.0111    0.9658    0.0074 N.ar      1 <0>        -0.5720
     15 C10        -1.1969    1.6243    0.0166 C.ar      1 <0>         0.3626
     16 N3         -1.2836    2.9228    0.0296 N.ar      1 <0>        -0.5890
     17 N4          1.9896    4.0984    0.0051 N.2       1 <0>        -0.1448
     18 N5          1.4040    5.2453    0.0168 N.2       1 <0>        -0.0556
     19 H1          0.1818    7.3859    1.2663 H         1 <0>         0.1519
     20 H2         -2.3348    4.9472   -1.1829 H         1 <0>         0.1553
     21 H3         -3.6666    8.7970    0.0838 H         1 <0>         0.1494
     22 H4         -2.1089    1.0458    0.0178 H         1 <0>         0.1952
@<TRIPOS>BOND
     1    1    6 ar
     2    1    2 ar
     3    1   19 1
     4    2    3 ar
     5    2    9 1
     6    3    4 ar
     7    3   20 1
     8    4    5 ar
     9    4    8 1
    10    5    6 ar
    11    5   21 1
    12    6    7 1
    13    9   18 1
    14    9   10 1
    15   10   16 ar
    16   10   11 ar
    17   11   12 ar
    18   11   17 1
    19   12   13 1
    20   12   14 ar
    21   14   15 ar
    22   15   16 ar
    23   15   22 1
    24   17   18 2
@<TRIPOS>MOLECULE
ZINC35428757
   32    34     0     0     0
SMALL
USER_CHARGES

@<TRIPOS>ATOM
      1 C1         -0.0145    1.4681    0.0189 C.3       1 <0>         0.1261
      2 N1          0.0017    0.0032    0.0063 N.pl3     1 <0>        -0.6052
      3 C2          0.1273   -0.6987    1.1949 C.2       1 <0>         0.3310
      4 C3          1.3210   -1.0159    1.8409 C.2       1 <0>        -0.0142
      5 N2          0.9712   -1.7317    3.0083 N.pl3     1 <0>        -0.4055
      6 C4          1.6112   -2.3279    4.0694 C.2       1 <0>         0.0711
      7 C5          0.9157   -2.9398    5.0287 C.2       1 <0>        -0.2070
      8 S1         -0.7633   -2.7010    4.4683 S.3       1 <0>         0.0865
      9 C6         -0.3871   -1.7946    2.9843 C.2       1 <0>         0.1703
     10 N3         -0.8709   -1.1868    1.9289 N.2       1 <0>        -0.4631
     11 C7          2.6148   -0.6894    1.4158 C.2       1 <0>         0.4858
     12 O1          3.6735   -1.1439    2.0901 O.co2     1 <0>        -0.7159
     13 O2          2.7893    0.0763    0.3363 O.co2     1 <0>        -0.6616
     14 C8         -0.1150   -0.7198   -1.2625 C.3       1 <0>         0.1835
     15 C9          1.0086   -0.2828   -2.2249 C.3       1 <0>        -0.1228
     16 C10         0.3323   -0.2718   -3.6183 C.3       1 <0>        -0.1272
     17 C11        -1.0836    0.2735   -3.3067 C.3       1 <0>        -0.1207
     18 C12        -1.4453   -0.3661   -1.9503 C.3       1 <0>        -0.1376
     19 H1          1.0091    1.8428    0.0099 H         1 <0>         0.0516
     20 H2         -0.5428    1.8332   -0.8618 H         1 <0>         0.0554
     21 H3         -0.5216    1.8181    0.9180 H         1 <0>         0.0405
     22 H4          2.6893   -2.3005    4.1263 H         1 <0>         0.1815
     23 H5          1.2738   -3.4472    5.9122 H         1 <0>         0.2124
     24 H6         -0.0599   -1.7940   -1.0862 H         1 <0>         0.0670
     25 H7          1.3661    0.7139   -1.9665 H         1 <0>         0.0808
     26 H8          1.8288   -1.0004   -2.2047 H         1 <0>         0.0654
     27 H9          0.8616    0.3946   -4.2994 H         1 <0>         0.0614
     28 H10         0.2762   -1.2801   -4.0285 H         1 <0>         0.0605
     29 H11        -1.0640    1.3601   -3.2230 H         1 <0>         0.0619
     30 H12        -1.7902   -0.0381   -4.0759 H         1 <0>         0.0574
     31 H13        -2.0353   -1.2687   -2.1086 H         1 <0>         0.0605
     32 H14        -2.0040    0.3435   -1.3401 H         1 <0>         0.0702
@<TRIPOS>BOND
     1    1    2 1
     2    1   19 1
     3    1   20 1
     4    1   21 1
     5    2    3 1
     6    2   14 1
     7    3   10 1
     8    3    4 2
     9    4    5 1
    10    4   11 1
    11    5    9 1
    12    5    6 1
    13    6    7 2
    14    6   22 1
    15    7    8 1
    16    7   23 1
    17    8    9 1
    18    9   10 2
    19   11   12 2
    20   11   13 1
    21   14   18 1
    22   14   15 1
    23   14   24 1
    24   15   16 1
    25   15   25 1
    26   15   26 1
    27   16   17 1
    28   16   27 1
    29   16   28 1
    30   17   18 1
    31   17   29 1
    32   17   30 1
    33   18   31 1
    34   18   32 1
@<TRIPOS>MOLECULE
ZINC41962674
   38    40     0     0     0
SMALL
USER_CHARGES

@<TRIPOS>ATOM
      1 C1         -0.0643    1.5964    0.2482 C.3       1 <0>        -0.1443
      2 C2         -0.0452    0.0702    0.1424 C.3       1 <0>        -0.0937
      3 H1         -1.0670   -0.3086    0.1665 H         1 <0>         0.0742
      4 C3          0.6205   -0.3416   -1.1722 C.3       1 <0>        -0.1099
      5 C4          0.6396   -1.8679   -1.2780 C.3       1 <0>        -0.1160
      6 C5          1.4274   -2.4506   -0.1030 C.3       1 <0>        -0.1469
      7 C6          0.7618   -2.0388    1.2117 C.3       1 <0>         0.0421
      8 C7          0.7426   -0.5126    1.3174 C.3       1 <0>        -0.0789
      9 C8          1.5377   -2.6129    2.3690 C.2       1 <0>         0.4807
     10 O1          2.7092   -2.3138    2.5257 O.co2     1 <0>        -0.6797
     11 O2          0.9940   -3.3764    3.1486 O.co2     1 <0>        -0.6679
     12 O3         -0.5778   -2.5354    1.2433 O.3       1 <0>        -0.2835
     13 C9         -0.7399   -3.8777    1.1323 C.ar      1 <0>         0.2528
     14 C10         0.3766   -4.7102    1.1266 C.ar      1 <0>        -0.1984
     15 C11         0.2231   -6.0616    1.0158 C.ar      1 <0>         0.0112
     16 C12        -1.0591   -6.6145    0.9070 C.ar      1 <0>        -0.3343
     17 C13        -2.1911   -5.7836    0.9117 C.ar      1 <0>         0.1833
     18 C14        -2.0152   -4.4099    1.0312 C.ar      1 <0>        -0.2118
     19 O4         -3.3281   -6.5093    0.7965 O.3       1 <0>        -0.2827
     20 C15        -3.0263   -7.9023    0.7051 C.3       1 <0>         0.0011
     21 C16        -1.5174   -8.0040    0.7761 C.2       1 <0>         0.3893
     22 O5         -0.8385   -9.0088    0.7347 O.2       1 <0>        -0.4485
     23 H2          0.9575    1.9751    0.2241 H         1 <0>         0.0527
     24 H3         -0.6256    2.0116   -0.5889 H         1 <0>         0.0501
     25 H4         -0.5386    1.8898    1.1847 H         1 <0>         0.0529
     26 H5          0.0593    0.0736   -2.0093 H         1 <0>         0.0565
     27 H6          1.6423    0.0371   -1.1963 H         1 <0>         0.0603
     28 H7         -0.3822   -2.2466   -1.2539 H         1 <0>         0.0612
     29 H8          1.1139   -2.1612   -2.2145 H         1 <0>         0.0583
     30 H9          1.4411   -3.5380   -0.1783 H         1 <0>         0.0771
     31 H10         2.4492   -2.0719   -0.1271 H         1 <0>         0.0825
     32 H11         1.7644   -0.1339    1.2933 H         1 <0>         0.0852
     33 H12         0.2684   -0.2192    2.2540 H         1 <0>         0.0647
     34 H13         1.3661   -4.2853    1.2097 H         1 <0>         0.1529
     35 H14         1.0905   -6.7050    1.0116 H         1 <0>         0.1263
     36 H15        -2.8743   -3.7556    1.0407 H         1 <0>         0.1362
     37 H16        -3.4790   -8.4404    1.5379 H         1 <0>         0.1226
     38 H17        -3.3859   -8.3035   -0.2424 H         1 <0>         0.1223
@<TRIPOS>BOND
     1    1    2 1
     2    1   23 1
     3    1   24 1
     4    1   25 1
     5    2    3 1
     6    2    8 1
     7    2    4 1
     8    4    5 1
     9    4   26 1
    10    4   27 1
    11    5    6 1
    12    5   28 1
    13    5   29 1
    14    6    7 1
    15    6   30 1
    16    6   31 1
    17    7    8 1
    18    7    9 1
    19    7   12 1
    20    8   32 1
    21    8   33 1
    22    9   10 2
    23    9   11 1
    24   12   13 1
    25   13   18 ar
    26   13   14 ar
    27   14   15 ar
    28   14   34 1
    29   15   16 ar
    30   15   35 1
    31   16   21 1
    32   16   17 ar
    33   17   18 ar
    34   17   19 1
    35   18   36 1
    36   19   20 1
    37   20   21 1
    38   20   37 1
    39   20   38 1
    40   21   22 2
@<TRIPOS>MOLECULE
ZINC54699496
   43    45     0     0     0
SMALL
USER_CHARGES

@<TRIPOS>ATOM
      1 C1         -0.0178    1.4608    0.0101 C.3       1 <0>         0.1045
      2 N1          0.0021   -0.0041    0.0020 N.pl3     1 <0>        -0.3689
      3 C2          0.0082   -0.8038   -1.0785 C.2       1 <0>         0.3164
      4 N2          0.0277   -2.0449   -0.6649 N.2       1 <0>        -0.5409
      5 C3          0.0345   -2.0773    0.6671 C.2       1 <0>         0.2212
      6 N3          0.0247   -0.8518    1.1216 N.2       1 <0>        -0.3295
      7 C4          0.0561   -3.3246    1.5126 C.3       1 <0>         0.0155
      8 C5         -1.1885   -3.3596    2.4018 C.3       1 <0>        -0.1067
      9 C6         -1.1666   -4.6260    3.2601 C.3       1 <0>        -0.1163
     10 C7          0.0870   -4.6259    4.1373 C.3       1 <0>        -0.1194
     11 C8          1.3316   -4.5908    3.2482 C.3       1 <0>        -0.1164
     12 C9          1.3097   -3.3245    2.3898 C.3       1 <0>        -0.1111
     13 C10        -0.0059   -0.3500   -2.5155 C.3       1 <0>         0.0133
     14 H1         -0.0220    0.7391   -2.5556 H         1 <0>         0.0887
     15 C11        -1.2443   -0.9090   -3.2194 C.3       1 <0>        -0.0782
     16 C12        -1.1392   -0.6918   -4.7005 C.2       1 <0>        -0.1630
     17 C13        -0.0350   -0.4136   -5.3162 C.2       1 <0>        -0.1435
     18 C14         1.2925   -0.2596   -4.6335 C.3       1 <0>        -0.0747
     19 C15         1.2440   -0.8740   -3.2339 C.3       1 <0>        -0.1399
     20 H2          1.1912   -1.9596   -3.3163 H         1 <0>         0.0736
     21 C16         2.4757   -0.4798   -2.4602 C.2       1 <0>         0.5017
     22 O1          3.3997   -1.2666   -2.3429 O.co2     1 <0>        -0.6948
     23 O2          2.5482    0.6259   -1.9516 O.co2     1 <0>        -0.6991
     24 H3          1.0048    1.8381    0.0023 H         1 <0>         0.0888
     25 H4         -0.5450    1.8219   -0.8730 H         1 <0>         0.0839
     26 H5         -0.5280    1.8123    0.9069 H         1 <0>         0.0797
     27 H6          0.0653   -4.2019    0.8658 H         1 <0>         0.0917
     28 H7         -1.1978   -2.4824    3.0486 H         1 <0>         0.0675
     29 H8         -2.0816   -3.3597    1.7768 H         1 <0>         0.0606
     30 H9         -2.0533   -4.6509    3.8936 H         1 <0>         0.0606
     31 H10        -1.1574   -5.5033    2.6133 H         1 <0>         0.0628
     32 H11         0.0777   -3.7486    4.7841 H         1 <0>         0.0611
     33 H12         0.1026   -5.5280    4.7488 H         1 <0>         0.0586
     34 H13         2.2247   -4.5908    3.8731 H         1 <0>         0.0622
     35 H14         1.3408   -5.4681    2.6013 H         1 <0>         0.0631
     36 H15         2.1964   -3.2995    1.7563 H         1 <0>         0.0667
     37 H16         1.3004   -2.4472    3.0366 H         1 <0>         0.0676
     38 H17        -1.3245   -1.9768   -3.0156 H         1 <0>         0.0837
     39 H18        -2.1333   -0.4035   -2.8422 H         1 <0>         0.0635
     40 H19        -2.0408   -0.7729   -5.2895 H         1 <0>         0.1005
     41 H20        -0.0714   -0.2847   -6.3878 H         1 <0>         0.0992
     42 H21         2.0616   -0.7596   -5.2222 H         1 <0>         0.0706
     43 H22         1.5354    0.7998   -4.5507 H         1 <0>         0.0750
@<TRIPOS>BOND
     1    1    2 1
     2    1   24 1
     3    1   25 1
     4    1   26 1
     5    2    6 1
     6    2    3 1
     7    3    4 2
     8    3   13 1
     9    4    5 1
    10    5    6 2
    11    5    7 1
    12    7   12 1
    13    7    8 1
    14    7   27 1
    15    8    9 1
    16    8   28 1
    17    8   29 1
    18    9   10 1
    19    9   30 1
    20    9   31 1
    21   10   11 1
    22   10   32 1
    23   10   33 1
    24   11   12 1
    25   11   34 1
    26   11   35 1
    27   12   36 1
    28   12   37 1
    29   13   14 1
    30   13   19 1
    31   13   15 1
    32   15   16 1
    33   15   38 1
    34   15   39 1
    35   16   17 2
    36   16   40 1
    37   17   18 1
    38   17   41 1
    39   18   19 1
    40   18   42 1
    41   18   43 1
    42   19   20 1
    43   19   21 1
    44   21   22 2
    45   21   23 1
@<TRIPOS>MOLECULE
ZINC63050184
   41    42     0     0     0
SMALL
USER_CHARGES

@<TRIPOS>ATOM
      1 C1         -0.5447   -2.4412   -2.4538 C.3       1 <0>        -0.0786
      2 C2         -0.1234   -1.8264   -1.1439 C.2       1 <0>        -0.3046
      3 C3          0.2981   -0.4946   -1.0892 C.2       1 <0>         0.2381
      4 N1          0.6633    0.0305    0.0628 N.2       1 <0>        -0.5579
      5 C4          0.6365   -0.6942    1.1839 C.2       1 <0>         0.6393
      6 O1          0.9796   -0.1844    2.2373 O.2       1 <0>        -0.5236
      7 N2          0.2358   -1.9792    1.1684 N.am      1 <0>        -0.4537
      8 C5         -0.1535   -2.5581    0.0024 C.2       1 <0>         0.1924
      9 C6          0.2152   -2.7526    2.4100 C.3       1 <0>         0.0869
     10 C7          1.4713   -2.5083    3.2340 C.3       1 <0>        -0.1302
     11 C8          2.7085   -3.1672    2.6523 C.3       1 <0>        -0.0824
     12 H1          3.4884   -3.1326    3.4526 H         1 <0>         0.0563
     13 C9          2.5009   -4.6306    2.3184 C.3       1 <0>        -0.0930
     14 C10         1.2181   -4.9456    1.5709 C.3       1 <0>        -0.0600
     15 C11         0.0032   -4.2320    2.1364 C.3       1 <0>        -0.1023
     16 C12         0.9648   -6.4675    1.7115 C.3       1 <0>        -0.1439
     17 C13         1.3704   -4.6616    0.0739 C.3       1 <0>        -0.1553
     18 C14         3.2802   -2.3807    1.4778 C.3       1 <0>        -0.1415
     19 C15        -0.9725   -2.2584    3.2261 C.2       1 <0>         0.5013
     20 O2         -1.6855   -1.3712    2.7891 O.co2     1 <0>        -0.6727
     21 O3         -1.2100   -2.7501    4.3162 O.co2     1 <0>        -0.6801
     22 H2         -1.6134   -2.2856   -2.6011 H         1 <0>         0.0614
     23 H3          0.0065   -1.9724   -3.2690 H         1 <0>         0.0644
     24 H4         -0.3318   -3.5101   -2.4386 H         1 <0>         0.0587
     25 H5          0.3248    0.1023   -1.9889 H         1 <0>         0.1607
     26 H6         -0.4798   -3.5875   -0.0145 H         1 <0>         0.1708
     27 H7          1.6412   -1.4260    3.3109 H         1 <0>         0.1151
     28 H8          1.3074   -2.8834    4.2530 H         1 <0>         0.0783
     29 H9          3.3551   -4.9843    1.7196 H         1 <0>         0.0551
     30 H10         2.5173   -5.2144    3.2525 H         1 <0>         0.0590
     31 H11        -0.2973   -4.7267    3.0716 H         1 <0>         0.0940
     32 H12        -0.8362   -4.3467    1.4349 H         1 <0>         0.0587
     33 H13         0.8655   -6.7234    2.7664 H         1 <0>         0.0562
     34 H14         0.0480   -6.7334    1.1853 H         1 <0>         0.0531
     35 H15         1.8027   -7.0165    1.2818 H         1 <0>         0.0520
     36 H16         2.1613   -5.2895   -0.3364 H         1 <0>         0.0568
     37 H17         0.4317   -4.8808   -0.4349 H         1 <0>         0.0566
     38 H18         1.6267   -3.6123   -0.0727 H         1 <0>         0.0646
     39 H19         3.5540   -1.3793    1.8100 H         1 <0>         0.0553
     40 H20         4.1641   -2.8908    1.0949 H         1 <0>         0.0476
     41 H21         2.5313   -2.3099    0.6890 H         1 <0>         0.0472
@<TRIPOS>BOND
     1    1    2 1
     2    1   22 1
     3    1   23 1
     4    1   24 1
     5    2    8 2
     6    2    3 1
     7    3    4 2
     8    3   25 1
     9    4    5 1
    10    5    6 2
    11    5    7 am
    12    7    8 1
    13    7    9 1
    14    8   26 1
    15    9   15 1
    16    9   10 1
    17    9   19 1
    18   10   11 1
    19   10   27 1
    20   10   28 1
    21   11   12 1
    22   11   13 1
    23   11   18 1
    24   13   14 1
    25   13   29 1
    26   13   30 1
    27   14   15 1
    28   14   16 1
    29   14   17 1
    30   15   31 1
    31   15   32 1
    32   16   33 1
    33   16   34 1
    34   16   35 1
    35   17   36 1
    36   17   37 1
    37   17   38 1
    38   18   39 1
    39   18   40 1
    40   18   41 1
    41   19   20 2
    42   19   21 1
@<TRIPOS>MOLECULE
ZINC00372933
   43    44     0     0     0
SMALL
USER_CHARGES
2-[(3-methyl-4-nitro-benzoyl)aminocarbamoyl]cyclohexane-1-carboxylic acid
@<TRIPOS>ATOM
      1 C1         -2.5295    5.6350    0.0667 C.3       1 <0>        -0.1333
      2 C2         -2.5206    4.1282    0.0468 C.ar      1 <0>        -0.0198
      3 C3         -1.3494    3.4434    0.2983 C.ar      1 <0>        -0.0631
      4 C4         -1.3430    2.0479    0.2794 C.ar      1 <0>        -0.0630
      5 C5         -2.5219    1.3543    0.0006 C.ar      1 <0>        -0.0946
      6 C6         -3.6869    2.0510   -0.2444 C.ar      1 <0>        -0.0514
      7 C7         -3.6865    3.4346   -0.2241 C.ar      1 <0>        -0.0309
      8 N1         -4.9390    4.1758   -0.4940 N.pl3     1 <0>         0.0297
      9 O1         -5.9895    3.5720   -0.6169 O.2       1 <0>        -0.1602
     10 O2         -4.9190    5.3896   -0.5931 O.3       1 <0>        -0.1535
     11 C8         -0.0916    1.3076    0.5475 C.2       1 <0>         0.5502
     12 O3          0.9356    1.9144    0.7800 O.2       1 <0>        -0.5316
     13 N2         -0.0887   -0.0400    0.5285 N.am      1 <0>        -0.5032
     14 N3          1.0984   -0.7415    0.7768 N.am      1 <0>        -0.5343
     15 C9          1.1013   -2.0891    0.7578 C.2       1 <0>         0.5350
     16 O4          0.0764   -2.6946    0.5258 O.2       1 <0>        -0.5045
     17 C10         2.3782   -2.8437    1.0250 C.3       1 <0>        -0.0686
     18 H1          3.1255   -2.5682    0.2808 H         1 <0>         0.1014
     19 C11         2.8954   -2.4926    2.4214 C.3       1 <0>        -0.1141
     20 C12         4.1918   -3.2586    2.6926 C.3       1 <0>        -0.1149
     21 C13         3.9219   -4.7625    2.6119 C.3       1 <0>        -0.1211
     22 C14         3.4046   -5.1136    1.2155 C.3       1 <0>        -0.0973
     23 C15         2.1083   -4.3475    0.9443 C.3       1 <0>        -0.1099
     24 H2          1.3610   -4.6230    1.6885 H         1 <0>         0.0752
     25 C16         1.5988   -4.6934   -0.4311 C.2       1 <0>         0.4771
     26 O5          1.4652   -3.8260   -1.2617 O.co2     1 <0>        -0.6369
     27 H3         -2.4302    6.0125   -0.9510 H         1 <0>         0.0921
     28 H4         -3.4680    5.9872    0.4949 H         1 <0>         0.1002
     29 H5         -1.6967    5.9953    0.6707 H         1 <0>         0.0777
     30 H6         -0.4399    3.9860    0.5096 H         1 <0>         0.1627
     31 H7         -2.5225    0.2745   -0.0199 H         1 <0>         0.1540
     32 H8         -4.6004    1.5155   -0.4569 H         1 <0>         0.1629
     33 H9         -0.9084   -0.5243    0.3429 H         1 <0>         0.4314
     34 H10         1.9181   -0.2573    0.9624 H         1 <0>         0.4275
     35 H11         3.0877   -1.4212    2.4789 H         1 <0>         0.0620
     36 H12         2.1482   -2.7680    3.1656 H         1 <0>         0.0664
     37 H13         4.5603   -3.0085    3.6875 H         1 <0>         0.0611
     38 H14         4.9391   -2.9832    1.9484 H         1 <0>         0.0638
     39 H15         3.1746   -5.0379    3.3561 H         1 <0>         0.0600
     40 H16         4.8454   -5.3082    2.8052 H         1 <0>         0.0591
     41 H17         3.2123   -6.1850    1.1580 H         1 <0>         0.0738
     42 H18         4.1519   -4.8381    0.4713 H         1 <0>         0.0562
     43 O6          1.2933   -5.9650   -0.7336 O.co2     1 <0>        -0.7733
@<TRIPOS>BOND
     1    1    2 1
     2    1   27 1
     3    1   28 1
     4    1   29 1
     5    2    7 ar
     6    2    3 ar
     7    3    4 ar
     8    3   30 1
     9    4    5 ar
    10    4   11 1
    11    5    6 ar
    12    5   31 1
    13    6    7 ar
    14    6   32 1
    15    7    8 1
    16    8    9 2
    17    8   10 1
    18   11   12 2
    19   11   13 am
    20   13   14 1
    21   13   33 1
    22   14   15 am
    23   14   34 1
    24   15   16 2
    25   15   17 1
    26   17   18 1
    27   17   23 1
    28   17   19 1
    29   19   20 1
    30   19   35 1
    31   19   36 1
    32   20   21 1
    33   20   37 1
    34   20   38 1
    35   21   22 1
    36   21   39 1
    37   21   40 1
    38   22   23 1
    39   22   41 1
    40   22   42 1
    41   23   24 1
    42   23   25 1
    43   25   26 2
    44   25   43 1
@<TRIPOS>MOLECULE
ZINC32087260
   35    36     0     0     0
SMALL
USER_CHARGES
2-fluoro-5-[(4-methyl-3-nitro-phenyl)sulfonylamino]benzamide
@<TRIPOS>ATOM
      1 C1          3.6257   -1.6148    4.7321 C.3       1 <0>        -0.1249
      2 C2          2.8009   -1.2138    3.5363 C.ar      1 <0>         0.0090
      3 C3          3.4034   -0.5940    2.4573 C.ar      1 <0>        -0.1481
      4 C4          2.6478   -0.2306    1.3586 C.ar      1 <0>         0.0275
      5 C5          1.2876   -0.4778    1.3427 C.ar      1 <0>        -0.6627
      6 C6          0.6853   -1.0979    2.4211 C.ar      1 <0>         0.0396
      7 C7          1.4421   -1.4662    3.5180 C.ar      1 <0>        -0.0731
      8 N1          0.7971   -2.1302    4.6730 N.pl3     1 <0>         0.0360
      9 O1         -0.4147   -2.2483    4.7088 O.2       1 <0>        -0.1635
     10 O2          1.4780   -2.5586    5.5875 O.3       1 <0>        -0.1687
     11 S1          0.3232   -0.0090   -0.0554 S.o2      1 <0>         2.5816
     12 O3         -0.8811   -0.7602    0.0115 O.2       1 <0>        -1.0281
     13 O4          1.1894   -0.0570   -1.1809 O.2       1 <0>        -0.9863
     14 N2         -0.0977    1.5794    0.1505 N.2       1 <0>        -1.0529
     15 C8         -0.8949    1.9565    1.2359 C.ar      1 <0>         0.2038
     16 C9         -2.0267    1.2151    1.5572 C.ar      1 <0>        -0.1606
     17 C10        -2.8152    1.5786    2.6313 C.ar      1 <0>        -0.1341
     18 C11        -2.4906    2.6900    3.3882 C.ar      1 <0>         0.0880
     19 C12        -1.3578    3.4446    3.0691 C.ar      1 <0>        -0.1597
     20 C13        -0.5595    3.0713    1.9863 C.ar      1 <0>        -0.1008
     21 C14        -1.0068    4.6319    3.8746 C.2       1 <0>         0.5671
     22 O5         -1.7036    4.9548    4.8170 O.2       1 <0>        -0.5486
     23 N3          0.0861    5.3573    3.5649 N.am      1 <0>        -0.8758
     24 F1         -3.2671    3.0455    4.4350 F         1 <0>        -0.1341
     25 H1          4.6760   -1.3344    4.5638 H         1 <0>         0.0732
     26 H2          3.5555   -2.7029    4.8777 H         1 <0>         0.0936
     27 H3          3.2476   -1.0999    5.6276 H         1 <0>         0.0880
     28 H4          4.4652   -0.3971    2.4714 H         1 <0>         0.1480
     29 H5          3.1192    0.2500    0.5140 H         1 <0>         0.1535
     30 H6         -0.3765   -1.2951    2.4068 H         1 <0>         0.1625
     31 H7         -2.2876    0.3489    0.9672 H         1 <0>         0.1562
     32 H8         -3.6906    0.9962    2.8781 H         1 <0>         0.1297
     33 H9          0.3166    3.6503    1.7343 H         1 <0>         0.1267
     34 H10         0.3475    6.2415    4.1648 H         1 <0>         0.4175
     35 H11         0.7167    5.0651    2.7123 H         1 <0>         0.4206
@<TRIPOS>BOND
     1    1    2 1
     2    1   25 1
     3    1   26 1
     4    1   27 1
     5    2    7 ar
     6    2    3 ar
     7    3    4 ar
     8    3   28 1
     9    4    5 ar
    10    4   29 1
    11    5    6 ar
    12    5   11 1
    13    6    7 ar
    14    6   30 1
    15    7    8 1
    16    8    9 2
    17    8   10 1
    18   11   12 2
    19   11   13 2
    20   11   14 1
    21   14   15 1
    22   15   20 ar
    23   15   16 ar
    24   16   17 ar
    25   16   31 1
    26   17   18 ar
    27   17   32 1
    28   18   19 ar
    29   18   24 1
    30   19   20 ar
    31   19   21 1
    32   20   33 1
    33   21   22 2
    34   21   23 am
    35   23   34 1
    36   23   35 1
@<TRIPOS>MOLECULE
ZINC39593119
   45    48     0     0     0
SMALL
USER_CHARGES

@<TRIPOS>ATOM
      1 C1          2.0245   -3.0371    0.4697 C.3       1 <0>        -0.1524
      2 C2          0.9060   -2.0227    0.2229 C.3       1 <0>         0.0536
      3 O1         -0.3559   -2.6933    0.2325 O.3       1 <0>        -0.3025
      4 C3         -1.4624   -1.9298    0.0265 C.ar      1 <0>         0.0997
      5 C4         -1.3336   -0.5656   -0.1859 C.ar      1 <0>        -0.1976
      6 C5         -2.4549    0.2178   -0.3958 C.ar      1 <0>        -0.0954
      7 C6         -3.7114   -0.3510   -0.3957 C.ar      1 <0>        -0.1276
      8 C7         -3.8563   -1.7246   -0.1835 C.ar      1 <0>        -0.0174
      9 C8         -2.7209   -2.5177    0.0232 C.ar      1 <0>         0.1112
     10 O2         -2.8502   -3.8556    0.2256 O.3       1 <0>        -0.4505
     11 C9         -5.1971   -2.3363   -0.1822 C.2       1 <0>         0.0129
     12 N1         -5.3281   -3.6132    0.0154 N.2       1 <0>        -0.0975
     13 N2         -6.6057   -4.1778    0.1237 N.pl3     1 <0>        -0.4701
     14 C10        -7.8886   -3.4550    0.1429 C.3       1 <0>         0.3738
     15 H1         -8.0314   -2.9045   -0.7870 H         1 <0>         0.0722
     16 N3         -8.8949   -4.5233    0.2709 N.pl3     1 <0>        -0.6758
     17 N4         -8.1810   -5.7271    0.3156 N.2       1 <0>        -0.3400
     18 C11        -6.9091   -5.5255    0.2276 C.2       1 <0>         0.4873
     19 S1         -5.7032   -6.8101    0.2424 S.3       1 <0>        -0.7988
     20 C12        -7.9525   -2.5066    1.3418 C.3       1 <0>        -0.0471
     21 H2         -7.1398   -1.7814    1.3023 H         1 <0>         0.1430
     22 C13        -9.2944   -1.8061    1.4010 C.2       1 <0>        -0.1572
     23 C14        -9.8275   -2.1913    2.5589 C.2       1 <0>        -0.0632
     24 C15       -11.1919   -1.5494    2.7363 C.3       1 <0>        -0.0454
     25 C16       -11.2237   -0.3850    1.7224 C.3       1 <0>        -0.1168
     26 C17       -10.2112   -0.8682    0.6592 C.3       1 <0>        -0.0578
     27 N5         -8.9751   -3.0338    3.2037 N.2       1 <0>        -0.1638
     28 N6         -7.9178   -3.2610    2.6064 N.2       1 <0>        -0.1118
     29 H3          2.9870   -2.5256    0.4624 H         1 <0>         0.0751
     30 H4          1.8744   -3.5151    1.4377 H         1 <0>         0.0668
     31 H5          2.0089   -3.7933   -0.3152 H         1 <0>         0.0677
     32 H6          0.9216   -1.2666    1.0079 H         1 <0>         0.0587
     33 H7          1.0561   -1.5447   -0.7451 H         1 <0>         0.0592
     34 H8         -0.3534   -0.1121   -0.1872 H         1 <0>         0.1275
     35 H9         -2.3457    1.2796   -0.5601 H         1 <0>         0.1262
     36 H10        -4.5832    0.2651   -0.5593 H         1 <0>         0.1271
     37 H11        -2.9544   -4.1047    1.1542 H         1 <0>         0.3905
     38 H12        -6.0707   -1.7228   -0.3455 H         1 <0>         0.1089
     39 H13        -9.8577   -4.4147    0.3156 H         1 <0>         0.4291
     40 H14       -11.9802   -2.2680    2.5123 H         1 <0>         0.0856
     41 H15       -11.3023   -1.1697    3.7521 H         1 <0>         0.0801
     42 H16       -12.2180   -0.2703    1.2908 H         1 <0>         0.0855
     43 H17       -10.8908    0.5443    2.1845 H         1 <0>         0.0768
     44 H18        -9.6487   -0.0245    0.2596 H         1 <0>         0.0811
     45 H19       -10.7263   -1.3964   -0.1432 H         1 <0>         0.0892
@<TRIPOS>BOND
     1    1    2 1
     2    1   29 1
     3    1   30 1
     4    1   31 1
     5    2    3 1
     6    2   32 1
     7    2   33 1
     8    3    4 1
     9    4    9 ar
    10    4    5 ar
    11    5    6 ar
    12    5   34 1
    13    6    7 ar
    14    6   35 1
    15    7    8 ar
    16    7   36 1
    17    8    9 ar
    18    8   11 1
    19    9   10 1
    20   10   37 1
    21   11   12 2
    22   11   38 1
    23   12   13 1
    24   13   18 1
    25   13   14 1
    26   14   15 1
    27   14   16 1
    28   14   20 1
    29   16   17 1
    30   16   39 1
    31   17   18 2
    32   18   19 1
    33   20   21 1
    34   20   28 1
    35   20   22 1
    36   22   26 1
    37   22   23 2
    38   23   24 1
    39   23   27 1
    40   24   25 1
    41   24   40 1
    42   24   41 1
    43   25   26 1
    44   25   42 1
    45   25   43 1
    46   26   44 1
    47   26   45 1
    48   27   28 2
@<TRIPOS>MOLECULE
ZINC59366452
   58    59     0     0     0
SMALL
USER_CHARGES

@<TRIPOS>ATOM
      1 C1         -1.1226    1.1973   -0.8347 C.3       1 <0>        -0.0671
      2 C2         -1.0193   -0.2871   -0.5966 C.2       1 <0>         0.0250
      3 N1         -0.5453   -1.1280   -1.4216 N.2       1 <0>        -0.2041
      4 N2         -0.5563   -2.4471   -0.9725 N.pl3     1 <0>        -0.4653
      5 C3         -1.1371   -2.4802    0.3801 C.3       1 <0>         0.3288
      6 C4         -1.4585   -0.9987    0.6632 C.3       1 <0>        -0.1592
      7 C5         -2.4107   -3.3278    0.4001 C.3       1 <0>        -0.0453
      8 C6         -2.0551   -4.7894    0.1203 C.3       1 <0>        -0.1384
      9 C7         -3.0745   -3.2185    1.7742 C.3       1 <0>        -0.1361
     10 C8         -3.3762   -2.8232   -0.6742 C.3       1 <0>        -0.1380
     11 O1         -0.1861   -2.9743    1.3252 O.3       1 <0>        -0.5419
     12 C9         -0.1060   -3.5244   -1.6679 C.2       1 <0>         0.5414
     13 O2         -0.0672   -4.7263   -1.0861 O.3       1 <0>        -0.5960
     14 C10         0.3134   -3.3760   -2.9821 C.2       1 <0>        -0.4937
     15 C11         0.7731   -4.4759   -3.6921 C.2       1 <0>         0.5419
     16 O3          0.8119   -5.6778   -3.1102 O.2       1 <0>        -0.5974
     17 N3          1.1839   -4.3305   -4.9794 N.am      1 <0>        -0.4651
     18 C12         1.7941   -5.3824   -5.8094 C.3       1 <0>         0.3284
     19 C13         2.0528   -4.6681   -7.1515 C.3       1 <0>        -0.1591
     20 C14         1.5460   -3.2631   -6.9159 C.2       1 <0>         0.0249
     21 N4          1.0919   -3.1630   -5.7343 N.2       1 <0>        -0.2042
     22 C15         1.5699   -2.1510   -7.9326 C.3       1 <0>        -0.0671
     23 C16         3.1087   -5.8631   -5.1915 C.3       1 <0>        -0.0457
     24 C17         2.8208   -6.5672   -3.8641 C.3       1 <0>        -0.1325
     25 C18         3.7950   -6.8398   -6.1486 C.3       1 <0>        -0.1359
     26 C19         4.0248   -4.6629   -4.9441 C.3       1 <0>        -0.1381
     27 O4          0.8892   -6.4743   -5.9855 O.3       1 <0>        -0.5417
     28 H1         -0.2098    1.6847   -0.4921 H         1 <0>         0.0728
     29 H2         -1.2575    1.3860   -1.8998 H         1 <0>         0.0749
     30 H3         -1.9753    1.5951   -0.2844 H         1 <0>         0.0721
     31 H4         -0.8925   -0.6396    1.5228 H         1 <0>         0.0918
     32 H5         -2.5281   -0.8653    0.8251 H         1 <0>         0.0994
     33 H6         -1.2059   -5.0814    0.7381 H         1 <0>         0.0683
     34 H7         -2.9104   -5.4229    0.3554 H         1 <0>         0.0148
     35 H8         -1.7956   -4.9051   -0.9320 H         1 <0>         0.1050
     36 H9         -3.3279   -2.1773    1.9736 H         1 <0>         0.0474
     37 H10        -3.9819   -3.8224    1.7885 H         1 <0>         0.0532
     38 H11        -2.3868   -3.5781    2.5396 H         1 <0>         0.0610
     39 H12        -2.9033   -2.9011   -1.6532 H         1 <0>         0.0622
     40 H13        -4.2835   -3.4270   -0.6600 H         1 <0>         0.0561
     41 H14        -3.6295   -1.7820   -0.4749 H         1 <0>         0.0467
     42 H15         0.6248   -2.4501    1.3780 H         1 <0>         0.3680
     43 H16         0.2820   -2.4043   -3.4525 H         1 <0>         0.0973
     44 H17         3.1185   -4.6573   -7.3803 H         1 <0>         0.0997
     45 H18         1.4927   -5.1474   -7.9544 H         1 <0>         0.0915
     46 H19         0.6435   -2.1639   -8.5070 H         1 <0>         0.0727
     47 H20         1.6671   -1.1933   -7.4213 H         1 <0>         0.0748
     48 H21         2.4162   -2.2915   -8.6050 H         1 <0>         0.0722
     49 H22         1.9684   -7.2357   -3.9847 H         1 <0>         0.0726
     50 H23         3.6949   -7.1440   -3.5617 H         1 <0>         0.0148
     51 H24         2.5941   -5.8236   -3.1000 H         1 <0>         0.0969
     52 H25         4.0001   -6.3381   -7.0943 H         1 <0>         0.0475
     53 H26         4.7315   -7.1822   -5.7084 H         1 <0>         0.0534
     54 H27         3.1424   -7.6948   -6.3249 H         1 <0>         0.0612
     55 H28         3.5359   -3.9671   -4.2623 H         1 <0>         0.0622
     56 H29         4.9613   -5.0053   -4.5039 H         1 <0>         0.0561
     57 H30         4.2299   -4.1613   -5.8898 H         1 <0>         0.0468
     58 H31         0.0544   -6.2291   -6.4076 H         1 <0>         0.3681
@<TRIPOS>BOND
     1    1    2 1
     2    1   28 1
     3    1   29 1
     4    1   30 1
     5    2    6 1
     6    2    3 2
     7    3    4 1
     8    4    5 1
     9    4   12 1
    10    5    6 1
    11    5    7 1
    12    5   11 1
    13    6   31 1
    14    6   32 1
    15    7    8 1
    16    7    9 1
    17    7   10 1
    18    8   33 1
    19    8   34 1
    20    8   35 1
    21    9   36 1
    22    9   37 1
    23    9   38 1
    24   10   39 1
    25   10   40 1
    26   10   41 1
    27   11   42 1
    28   12   13 1
    29   12   14 2
    30   14   15 1
    31   14   43 1
    32   15   16 2
    33   15   17 am
    34   17   21 1
    35   17   18 1
    36   18   19 1
    37   18   23 1
    38   18   27 1
    39   19   20 1
    40   19   44 1
    41   19   45 1
    42   20   21 2
    43   20   22 1
    44   22   46 1
    45   22   47 1
    46   22   48 1
    47   23   24 1
    48   23   25 1
    49   23   26 1
    50   24   49 1
    51   24   50 1
    52   24   51 1
    53   25   52 1
    54   25   53 1
    55   25   54 1
    56   26   55 1
    57   26   56 1
    58   26   57 1
    59   27   58 1
@<TRIPOS>MOLECULE
ZINC16901004
   39    41     0     0     0
SMALL
USER_CHARGES

@<TRIPOS>ATOM
      1 C1          0.8353    1.3792    1.1548 C.ar      1 <0>        -0.1287
      2 C2          1.1800    2.0891    0.0229 C.ar      1 <0>        -0.0701
      3 C3          1.5454    1.4104   -1.1424 C.ar      1 <0>        -0.1218
      4 C4          1.5598    0.0141   -1.1553 C.ar      1 <0>        -0.0595
      5 C5          1.2118   -0.6879   -0.0131 C.ar      1 <0>         0.0754
      6 C6          0.8499   -0.0031    1.1407 C.ar      1 <0>        -0.1067
      7 N1          1.2242   -2.0901   -0.0212 N.am      1 <0>        -0.5165
      8 C7          2.3516   -2.8040   -0.1286 C.2       1 <0>         0.5223
      9 O1          3.4681   -2.3425   -0.2289 O.2       1 <0>        -0.4542
     10 C8          2.0115   -4.2783   -0.1046 C.3       1 <0>        -0.1576
     11 C9          0.4758   -4.2927    0.0369 C.3       1 <0>         0.1175
     12 H1          0.0159   -4.7789   -0.8234 H         1 <0>         0.1383
     13 C10         0.1102   -2.8251    0.0836 C.2       1 <0>         0.5062
     14 O2         -1.0137   -2.3847    0.1955 O.2       1 <0>        -0.4522
     15 N2          0.0787   -4.9613    1.2785 N.pl3     1 <0>        -0.7126
     16 C11        -1.1863   -5.5514    1.3818 C.ar      1 <0>         0.1953
     17 C12        -2.0633   -5.5091    0.3078 C.ar      1 <0>        -0.1116
     18 C13        -3.3120   -6.0926    0.4124 C.ar      1 <0>        -0.0081
     19 C14        -3.6900   -6.7189    1.5855 C.ar      1 <0>        -0.0920
     20 C15        -2.8212   -6.7645    2.6604 C.ar      1 <0>        -0.0989
     21 C16        -1.5659   -6.1878    2.5616 C.ar      1 <0>         0.0903
     22 O3         -0.7079   -6.2376    3.6158 O.3       1 <0>        -0.4863
     23 N3         -4.2468   -6.0462   -0.7342 N.pl3     1 <0>         0.0329
     24 O4         -3.9179   -5.4986   -1.7606 O.2       1 <0>        -0.1516
     25 O5         -5.3393   -6.5561   -0.6443 O.3       1 <0>        -0.1573
     26 C17         1.9142    2.1662   -2.3548 C.2       1 <0>         0.5217
     27 O6          1.9004    3.3889   -2.3410 O.co2     1 <0>        -0.6815
     28 O7          2.2336    1.5698   -3.3735 O.co2     1 <0>        -0.6819
     29 H2          0.5575    1.9053    2.0561 H         1 <0>         0.1247
     30 H3          1.1671    3.1689    0.0377 H         1 <0>         0.1348
     31 H4          1.8409   -0.5166   -2.0530 H         1 <0>         0.1304
     32 H5          0.5790   -0.5530    2.0299 H         1 <0>         0.1134
     33 H6          2.3155   -4.7573   -1.0353 H         1 <0>         0.1381
     34 H7          2.4801   -4.7662    0.7501 H         1 <0>         0.1293
     35 H8          0.6924   -4.9951    2.0289 H         1 <0>         0.4166
     36 H9         -1.7706   -5.0202   -0.6096 H         1 <0>         0.1566
     37 H10        -4.6667   -7.1734    1.6628 H         1 <0>         0.1555
     38 H11        -3.1198   -7.2543    3.5754 H         1 <0>         0.1541
     39 H12        -0.7895   -5.4911    4.2250 H         1 <0>         0.3953
@<TRIPOS>BOND
     1    1    6 ar
     2    1    2 ar
     3    1   29 1
     4    2    3 ar
     5    2   30 1
     6    3    4 ar
     7    3   26 1
     8    4    5 ar
     9    4   31 1
    10    5    6 ar
    11    5    7 1
    12    6   32 1
    13    7   13 am
    14    7    8 am
    15    8    9 2
    16    8   10 1
    17   10   11 1
    18   10   33 1
    19   10   34 1
    20   11   12 1
    21   11   13 1
    22   11   15 1
    23   13   14 2
    24   15   16 1
    25   15   35 1
    26   16   21 ar
    27   16   17 ar
    28   17   18 ar
    29   17   36 1
    30   18   19 ar
    31   18   23 1
    32   19   20 ar
    33   19   37 1
    34   20   21 ar
    35   20   38 1
    36   21   22 1
    37   22   39 1
    38   23   24 2
    39   23   25 1
    40   26   27 2
    41   26   28 1
@<TRIPOS>MOLECULE
ZINC12342513
   36    37     0     0     0
SMALL
USER_CHARGES
8-[[(2S)-2-hydroxypropyl]amino]-1,3,7-trimethyl-purine-2,6-dione
@<TRIPOS>ATOM
      1 C1         -4.6709    5.8830    8.4337 C.3       1 <0>        -0.1833
      2 C2         -4.0575    6.2587    7.0834 C.3       1 <0>         0.0900
      3 H1         -3.1881    6.8962    7.2440 H         1 <0>         0.1069
      4 C3         -3.6291    4.9880    6.3466 C.3       1 <0>         0.1093
      5 N1         -2.9347    5.3518    5.1089 N.pl3     1 <0>        -0.6953
      6 C4         -2.4544    4.3683    4.2750 C.2       1 <0>         0.5556
      7 N2         -2.5603    3.0721    4.4863 N.2       1 <0>        -0.5374
      8 C5         -1.9892    2.3994    3.4859 C.2       1 <0>         0.3542
      9 C6         -1.4900    3.3328    2.5839 C.2       1 <0>        -0.1767
     10 N3         -1.7967    4.5827    3.1049 N.pl3     1 <0>        -0.4484
     11 C7         -1.4744    5.8814    2.5086 C.3       1 <0>         0.0767
     12 C8         -0.8271    2.8840    1.4280 C.2       1 <0>         0.5947
     13 O1         -0.3773    3.6840    0.6262 O.2       1 <0>        -0.5214
     14 N4         -0.6984    1.5583    1.2133 N.am      1 <0>        -0.5525
     15 C9         -1.1850    0.6644    2.0914 C.2       1 <0>         0.7089
     16 O2         -1.0466   -0.5228    1.8675 O.2       1 <0>        -0.5374
     17 N5         -1.8215    1.0513    3.2130 N.am      1 <0>        -0.5100
     18 C10        -2.3368    0.0461    4.1458 C.3       1 <0>         0.0865
     19 C11        -0.0127    1.0858    0.0080 C.3       1 <0>         0.0838
     20 O3         -5.0246    6.9605    6.2996 O.3       1 <0>        -0.5612
     21 H2         -3.9333    5.3476    9.0315 H         1 <0>         0.0721
     22 H3         -4.9762    6.7882    8.9586 H         1 <0>         0.0724
     23 H4         -5.5403    5.2454    8.2731 H         1 <0>         0.0646
     24 H5         -4.5099    4.3922    6.1074 H         1 <0>         0.0756
     25 H6         -2.9596    4.4080    6.9818 H         1 <0>         0.0817
     26 H7         -2.8137    6.2859    4.8773 H         1 <0>         0.4168
     27 H8         -2.2898    6.1941    1.8563 H         1 <0>         0.0819
     28 H9         -1.3373    6.6200    3.2984 H         1 <0>         0.0851
     29 H10        -0.5563    5.7965    1.9272 H         1 <0>         0.1023
     30 H11        -2.1122   -0.9508    3.7664 H         1 <0>         0.1025
     31 H12        -1.8656    0.1788    5.1197 H         1 <0>         0.0784
     32 H13        -3.4160    0.1623    4.2455 H         1 <0>         0.0783
     33 H14         0.0021   -0.0041    0.0020 H         1 <0>         0.1044
     34 H15         1.0099    1.4631    0.0003 H         1 <0>         0.0804
     35 H16        -0.5399    1.4469   -0.8751 H         1 <0>         0.0804
     36 H17        -5.8268    6.4523    6.1171 H         1 <0>         0.3800
@<TRIPOS>BOND
     1    1    2 1
     2    1   21 1
     3    1   22 1
     4    1   23 1
     5    2    3 1
     6    2    4 1
     7    2   20 1
     8    4    5 1
     9    4   24 1
    10    4   25 1
    11    5    6 1
    12    5   26 1
    13    6   10 1
    14    6    7 2
    15    7    8 1
    16    8   17 1
    17    8    9 2
    18    9   10 1
    19    9   12 1
    20   10   11 1
    21   11   27 1
    22   11   28 1
    23   11   29 1
    24   12   13 2
    25   12   14 am
    26   14   15 am
    27   14   19 1
    28   15   16 2
    29   15   17 am
    30   17   18 1
    31   18   30 1
    32   18   31 1
    33   18   32 1
    34   19   33 1
    35   19   34 1
    36   19   35 1
    37   20   36 1
@<TRIPOS>MOLECULE
ZINC35320880
   41    42     0     0     0
SMALL
USER_CHARGES

@<TRIPOS>ATOM
      1 C1         -0.1132    1.9478    1.6031 C.3       1 <0>        -0.0697
      2 C2         -0.0464    0.4651    1.3422 C.2       1 <0>         0.0430
      3 C3          0.0459   -0.1431    0.0821 C.2       1 <0>         0.0688
      4 C4          0.0826   -1.4865    0.2699 C.2       1 <0>         0.0055
      5 N1          0.0154   -1.7154    1.6085 N.pl3     1 <0>        -0.3598
      6 N2         -0.0588   -0.4741    2.2533 N.2       1 <0>        -0.2656
      7 C5          0.0249   -3.0271    2.2608 C.3       1 <0>         0.1271
      8 C6          1.4458   -3.4270    2.5642 C.2       1 <0>         0.4996
      9 O1          2.3605   -2.6890    2.2650 O.2       1 <0>        -0.5120
     10 N3          1.7001   -4.6048    3.1681 N.am      1 <0>        -0.6141
     11 C7          0.6021   -5.5118    3.5308 C.3       1 <0>         0.0906
     12 C8          0.8678   -6.8819    2.8949 C.3       1 <0>         0.0950
     13 N4          2.2481   -7.2824    3.2019 N.am      1 <0>        -0.6183
     14 C9          3.3461   -6.3754    2.8392 C.3       1 <0>         0.0930
     15 C10         3.0808   -5.0078    3.4701 C.3       1 <0>         0.0972
     16 C11         2.5024   -8.4602    3.8057 C.2       1 <0>         0.5155
     17 O2          1.5855   -9.1574    4.1855 O.2       1 <0>        -0.5410
     18 C12         3.9260   -8.9109    4.0090 C.3       1 <0>        -0.1767
     19 C13         0.1802   -2.5342   -0.8090 C.3       1 <0>        -0.0776
     20 N5          0.0918    0.5222   -1.1580 N.pl3     1 <0>        -0.8727
     21 H1          0.8963    2.3423    1.7186 H         1 <0>         0.0751
     22 H2         -0.6028    2.4426    0.7643 H         1 <0>         0.0726
     23 H3         -0.6815    2.1310    2.5150 H         1 <0>         0.0742
     24 H4         -0.5441   -2.9754    3.1891 H         1 <0>         0.1237
     25 H5         -0.4269   -3.7656    1.5985 H         1 <0>         0.1201
     26 H6          0.5555   -5.6146    4.6150 H         1 <0>         0.0824
     27 H7         -0.3409   -5.1121    3.1579 H         1 <0>         0.0968
     28 H8          0.1741   -7.6162    3.3045 H         1 <0>         0.1089
     29 H9          0.7380   -6.8152    1.8147 H         1 <0>         0.0746
     30 H10         4.2891   -6.7751    3.2121 H         1 <0>         0.1035
     31 H11         3.3927   -6.2727    1.7550 H         1 <0>         0.0769
     32 H12         3.7743   -4.2753    3.0570 H         1 <0>         0.1074
     33 H13         3.2147   -5.0739    4.5498 H         1 <0>         0.0759
     34 H14         4.3192   -8.4704    4.9252 H         1 <0>         0.0953
     35 H15         3.9555   -9.9977    4.0867 H         1 <0>         0.0958
     36 H16         4.5329   -8.5905    3.1622 H         1 <0>         0.0842
     37 H17         1.2291   -2.7510   -1.0111 H         1 <0>         0.0721
     38 H18        -0.3218   -3.4437   -0.4787 H         1 <0>         0.0637
     39 H19        -0.2963   -2.1657   -1.7174 H         1 <0>         0.0777
     40 H20         0.0595    1.4911   -1.1901 H         1 <0>         0.3971
     41 H21         0.1557    0.0115   -1.9802 H         1 <0>         0.3943
@<TRIPOS>BOND
     1    1    2 1
     2    1   21 1
     3    1   22 1
     4    1   23 1
     5    2    6 2
     6    2    3 1
     7    3    4 2
     8    3   20 1
     9    4    5 1
    10    4   19 1
    11    5    6 1
    12    5    7 1
    13    7    8 1
    14    7   24 1
    15    7   25 1
    16    8    9 2
    17    8   10 am
    18   10   15 1
    19   10   11 1
    20   11   12 1
    21   11   26 1
    22   11   27 1
    23   12   13 1
    24   12   28 1
    25   12   29 1
    26   13   14 1
    27   13   16 am
    28   14   15 1
    29   14   30 1
    30   14   31 1
    31   15   32 1
    32   15   33 1
    33   16   17 2
    34   16   18 1
    35   18   34 1
    36   18   35 1
    37   18   36 1
    38   19   37 1
    39   19   38 1
    40   19   39 1
    41   20   40 1
    42   20   41 1
@<TRIPOS>MOLECULE
ZINC43360031
   40    42     0     0     0
SMALL
USER_CHARGES

@<TRIPOS>ATOM
      1 C1         -0.0184    1.5028    0.0103 C.3       1 <0>        -0.1753
      2 C2          0.0021   -0.0041    0.0020 C.2       1 <0>         0.5127
      3 O1          1.0605   -0.5961   -0.0113 O.2       1 <0>        -0.5427
      4 N1         -1.1558   -0.6938    0.0094 N.am      1 <0>        -0.6182
      5 C3         -2.4459    0.0093    0.0193 C.3       1 <0>         0.1110
      6 C4         -3.2826   -0.5121    1.1918 C.3       1 <0>        -0.1435
      7 C5         -3.3975   -2.0350    1.0938 C.3       1 <0>         0.1639
      8 C6         -2.0032   -2.6601    1.1798 C.3       1 <0>        -0.1454
      9 C7         -1.1521   -2.1630    0.0014 C.3       1 <0>         0.1129
     10 N2         -4.2248   -2.5339    2.1952 N.am      1 <0>        -0.7322
     11 C8         -4.8813   -3.7041    2.0684 C.2       1 <0>         0.6993
     12 O2         -4.7870   -4.3457    1.0399 O.2       1 <0>        -0.5199
     13 N3         -5.6423   -4.1631    3.0816 N.am      1 <0>        -0.6226
     14 C9         -6.3198   -5.3706    2.9507 C.2       1 <0>         0.2484
     15 N4         -6.3408   -6.2060    1.9309 N.2       1 <0>        -0.2963
     16 N5         -7.0104   -7.2772    1.9590 N.2       1 <0>        -0.2338
     17 C10        -7.7083   -7.5691    3.0381 C.2       1 <0>         0.0619
     18 S1         -7.3229   -6.1524    4.0575 S.3       1 <0>         0.0821
     19 C11        -8.5810   -8.7622    3.3313 C.3       1 <0>        -0.0819
     20 C12        -8.5526   -9.9208    2.3325 C.3       1 <0>        -0.1457
     21 C13        -9.7769   -9.0065    2.4089 C.3       1 <0>        -0.1531
     22 H1          1.0042    1.8801    0.0026 H         1 <0>         0.0932
     23 H2         -0.5455    1.8639   -0.8728 H         1 <0>         0.0893
     24 H3         -0.5286    1.8543    0.9071 H         1 <0>         0.0883
     25 H4         -2.2778    1.0797    0.1379 H         1 <0>         0.0956
     26 H5         -2.9716   -0.1786   -0.9169 H         1 <0>         0.0770
     27 H6         -2.7996   -0.2434    2.1313 H         1 <0>         0.0764
     28 H7         -4.2778   -0.0690    1.1540 H         1 <0>         0.0870
     29 H8         -3.8581   -2.3040    0.1432 H         1 <0>         0.0964
     30 H9         -1.5323   -2.3712    2.1194 H         1 <0>         0.0701
     31 H10        -2.0878   -3.7458    1.1334 H         1 <0>         0.0837
     32 H11        -1.5745   -2.5244   -0.9361 H         1 <0>         0.0734
     33 H12        -0.1300   -2.5264    0.1083 H         1 <0>         0.0978
     34 H13        -4.3000   -2.0220    3.0157 H         1 <0>         0.3990
     35 H14        -5.7176   -3.6512    3.9021 H         1 <0>         0.4240
     36 H15        -8.7002   -9.0095    4.3862 H         1 <0>         0.1365
     37 H16        -7.9027   -9.8201    1.4632 H         1 <0>         0.1095
     38 H17        -8.6530  -10.9307    2.7301 H         1 <0>         0.1096
     39 H18       -10.6829   -9.4148    2.8568 H         1 <0>         0.1100
     40 H19        -9.9325   -8.3042    1.5899 H         1 <0>         0.1016
@<TRIPOS>BOND
     1    1    2 1
     2    1   22 1
     3    1   23 1
     4    1   24 1
     5    2    3 2
     6    2    4 am
     7    4    9 1
     8    4    5 1
     9    5    6 1
    10    5   25 1
    11    5   26 1
    12    6    7 1
    13    6   27 1
    14    6   28 1
    15    7    8 1
    16    7   10 1
    17    7   29 1
    18    8    9 1
    19    8   30 1
    20    8   31 1
    21    9   32 1
    22    9   33 1
    23   10   11 am
    24   10   34 1
    25   11   12 2
    26   11   13 am
    27   13   14 1
    28   13   35 1
    29   14   18 1
    30   14   15 2
    31   15   16 1
    32   16   17 2
    33   17   18 1
    34   17   19 1
    35   19   21 1
    36   19   20 1
    37   19   36 1
    38   20   21 1
    39   20   37 1
    40   20   38 1
    41   21   39 1
    42   21   40 1
@<TRIPOS>MOLECULE
ZINC50656689
   34    35     0     0     0
SMALL
USER_CHARGES

@<TRIPOS>ATOM
      1 C1         -0.4019    1.2878    0.1469 C.3       1 <0>        -0.1467
      2 C2         -0.1406   -0.2077   -0.0429 C.3       1 <0>         0.0766
      3 H1         -1.0895   -0.7311   -0.1602 H         1 <0>         0.0672
      4 C3          0.7205   -0.4223   -1.2929 C.3       1 <0>         0.0845
      5 N1          1.1128   -1.8395   -1.3485 N.pl3     1 <0>        -0.9975
      6 C4          1.7058   -2.4408   -0.1434 C.3       1 <0>         0.1160
      7 H2          2.6959   -2.0185    0.0283 H         1 <0>         0.0853
      8 C5          0.7967   -2.1278    1.0505 C.3       1 <0>         0.0562
      9 O1          0.5497   -0.7206    1.0991 O.3       1 <0>        -0.3734
     10 C6          1.8164   -3.9560   -0.3246 C.3       1 <0>        -0.1820
     11 S1          0.8928   -2.7315   -2.7263 S.o2      1 <0>         2.7086
     12 O2          0.6461   -4.0676   -2.3100 O.2       1 <0>        -0.9467
     13 O3         -0.0198   -2.0059   -3.5385 O.2       1 <0>        -0.9537
     14 C7          2.4301   -2.7480   -3.5872 C.ar      1 <0>        -0.8556
     15 C8          2.7316   -1.7651   -4.5167 C.ar      1 <0>         0.2970
     16 N2          3.8945   -1.8066   -5.1456 N.ar      1 <0>        -0.5757
     17 C9          4.7656   -2.7731   -4.8953 C.ar      1 <0>         0.6022
     18 N3          4.5081   -3.7276   -4.0133 N.ar      1 <0>        -0.5754
     19 C10         3.3664   -3.7410   -3.3454 C.ar      1 <0>         0.2918
     20 N4          5.9731   -2.7860   -5.5716 N.pl3     1 <0>        -0.8034
     21 H3          0.5474    1.8106    0.2641 H         1 <0>         0.0669
     22 H4         -0.9266    1.6785   -0.7249 H         1 <0>         0.0770
     23 H5         -1.0127    1.4398    1.0368 H         1 <0>         0.0699
     24 H6          0.1462   -0.1652   -2.1829 H         1 <0>         0.1080
     25 H7          1.6114    0.2032   -1.2369 H         1 <0>         0.0799
     26 H8         -0.1484   -2.6589    0.9376 H         1 <0>         0.0612
     27 H9          1.2849   -2.4438    1.9725 H         1 <0>         0.1088
     28 H10         2.3541   -4.1733   -1.2475 H         1 <0>         0.0623
     29 H11         2.3561   -4.3845    0.5199 H         1 <0>         0.0778
     30 H12         0.8176   -4.3897   -0.3753 H         1 <0>         0.1002
     31 H13         2.0254   -0.9750   -4.7253 H         1 <0>         0.1844
     32 H14         3.1642   -4.5189   -2.6241 H         1 <0>         0.1864
     33 H15         6.1733   -2.0929   -6.2200 H         1 <0>         0.4209
     34 H16         6.6192   -3.4882   -5.3972 H         1 <0>         0.4209
@<TRIPOS>BOND
     1    1    2 1
     2    1   21 1
     3    1   22 1
     4    1   23 1
     5    2    3 1
     6    2    9 1
     7    2    4 1
     8    4    5 1
     9    4   24 1
    10    4   25 1
    11    5    6 1
    12    5   11 1
    13    6    7 1
    14    6    8 1
    15    6   10 1
    16    8    9 1
    17    8   26 1
    18    8   27 1
    19   10   28 1
    20   10   29 1
    21   10   30 1
    22   11   12 2
    23   11   13 2
    24   11   14 1
    25   14   19 ar
    26   14   15 ar
    27   15   16 ar
    28   15   31 1
    29   16   17 ar
    30   17   18 ar
    31   17   20 1
    32   18   19 ar
    33   19   32 1
    34   20   33 1
    35   20   34 1
@<TRIPOS>MOLECULE
ZINC62084175
   32    33     0     0     0
SMALL
USER_CHARGES

@<TRIPOS>ATOM
      1 C1         -0.0225    1.8097    0.0120 C.3       1 <0>        -0.6737
      2 S1          0.0021   -0.0041    0.0020 S.o2      1 <0>         2.6095
      3 O1          0.8352   -0.4880    1.0465 O.2       1 <0>        -0.9529
      4 O2         -1.3147   -0.5105   -0.1678 O.2       1 <0>        -0.9529
      5 N1          0.7947   -0.4113   -1.3938 N.pl3     1 <0>        -0.9996
      6 C2          0.0519   -0.6007   -2.6477 C.3       1 <0>         0.1054
      7 C3          0.6527    0.3200   -3.7171 C.3       1 <0>         0.1151
      8 N2          2.1115    0.1422   -3.7242 N.pl3     1 <0>        -0.5896
      9 C4          2.8543    0.3316   -2.4703 C.3       1 <0>         0.1151
     10 C5          2.2542   -0.5837   -1.4021 C.3       1 <0>         0.1053
     11 C6          2.7754   -0.1989   -4.8933 C.ar      1 <0>         0.5195
     12 N3          2.0781   -0.3576   -6.0078 N.ar      1 <0>        -0.5312
     13 C7          2.6773   -0.6823   -7.1417 C.ar      1 <0>         0.1226
     14 C8          4.0580   -0.8568   -7.1520 C.ar      1 <0>         0.0554
     15 C9          4.7566   -0.6815   -5.9612 C.ar      1 <0>         0.1227
     16 N4          4.0905   -0.3519   -4.8668 N.ar      1 <0>        -0.5312
     17 N5          4.7285   -1.2012   -8.3328 N.pl3     1 <0>        -0.8705
     18 H1          1.0001    2.1870    0.0043 H         1 <0>         0.1272
     19 H2         -0.5497    2.1708   -0.8711 H         1 <0>         0.1272
     20 H3         -0.5327    2.1613    0.9088 H         1 <0>         0.1289
     21 H4          0.1361   -1.6387   -2.9695 H         1 <0>         0.0793
     22 H5         -0.9968   -0.3468   -2.4936 H         1 <0>         0.1035
     23 H6          0.2475    0.0585   -4.6946 H         1 <0>         0.1099
     24 H7          0.4118    1.3572   -3.4840 H         1 <0>         0.0668
     25 H8          3.9030    0.0777   -2.6244 H         1 <0>         0.1103
     26 H9          2.7701    1.3696   -2.1485 H         1 <0>         0.0664
     27 H10         2.6594   -0.3185   -0.4256 H         1 <0>         0.1036
     28 H11         2.4988   -1.6204   -1.6332 H         1 <0>         0.0790
     29 H12         2.1027   -0.8106   -8.0471 H         1 <0>         0.1640
     30 H13         5.8287   -0.8091   -5.9318 H         1 <0>         0.1640
     31 H14         4.2301   -1.3209   -9.1563 H         1 <0>         0.4006
     32 H15         5.6912   -1.3200   -8.3269 H         1 <0>         0.4006
@<TRIPOS>BOND
     1    1    2 1
     2    1   18 1
     3    1   19 1
     4    1   20 1
     5    2    3 2
     6    2    4 2
     7    2    5 1
     8    5   10 1
     9    5    6 1
    10    6    7 1
    11    6   21 1
    12    6   22 1
    13    7    8 1
    14    7   23 1
    15    7   24 1
    16    8    9 1
    17    8   11 1
    18    9   10 1
    19    9   25 1
    20    9   26 1
    21   10   27 1
    22   10   28 1
    23   11   16 ar
    24   11   12 ar
    25   12   13 ar
    26   13   14 ar
    27   13   29 1
    28   14   15 ar
    29   14   17 1
    30   15   16 ar
    31   15   30 1
    32   17   31 1
    33   17   32 1
@<TRIPOS>MOLECULE
ZINC05883803
   34    36     0     0     0
SMALL
USER_CHARGES
9-[5-(hydroxymethyl)tetrahydrofuran-2-yl]-1-methyl-6H-purin-6-ol
@<TRIPOS>ATOM
      1 C1          3.6205    5.1298    1.3936 C.3       1 <0>         0.0877
      2 N1          2.8025    4.2643    0.5404 N.pl3     1 <0>        -0.6502
      3 C2          3.2356    3.0014    0.2340 C.2       1 <0>         0.3967
      4 N2          2.4036    2.0227   -0.0102 N.2       1 <0>        -0.5261
      5 C3          1.0648    2.2870    0.0042 C.2       1 <0>         0.2033
      6 C4          0.5779    3.5712    0.0154 C.2       1 <0>        -0.0598
      7 N3         -0.7455    3.5131    0.0273 N.2       1 <0>        -0.4570
      8 C5         -1.1247    2.2589    0.0189 C.2       1 <0>         0.2007
      9 N4         -0.0178    1.4608    0.0101 N.pl3     1 <0>        -0.4405
     10 C6          0.0021   -0.0041    0.0020 C.3       1 <0>         0.3039
     11 H1          0.8456   -0.3671   -0.5851 H         1 <0>         0.1121
     12 C7          0.0782   -0.5489    1.4505 C.3       1 <0>        -0.1579
     13 C8         -0.5475   -1.9586    1.2685 C.3       1 <0>        -0.1466
     14 C9         -1.6064   -1.7082    0.1733 C.3       1 <0>         0.0848
     15 H2         -2.5869   -1.5752    0.6305 H         1 <0>         0.0971
     16 O1         -1.2311   -0.5165   -0.5272 O.3       1 <0>        -0.3614
     17 C10        -1.6401   -2.8914   -0.7962 C.3       1 <0>         0.0665
     18 O2         -2.6937   -2.7017   -1.7427 O.3       1 <0>        -0.5650
     19 C11         1.5153    4.7558    0.0137 C.3       1 <0>         0.4143
     20 H3          1.1239    5.5440    0.6570 H         1 <0>         0.0980
     21 O3          1.6827    5.2475   -1.3176 O.3       1 <0>        -0.5638
     22 H4          3.3433    4.9784    2.4369 H         1 <0>         0.0594
     23 H5          4.6736    4.8832    1.2580 H         1 <0>         0.0782
     24 H6          3.4533    6.1718    1.1208 H         1 <0>         0.0717
     25 H7          4.2974    2.8082    0.1925 H         1 <0>         0.1898
     26 H8         -2.1478    1.9128    0.0215 H         1 <0>         0.2150
     27 H9          1.1115   -0.6185    1.7903 H         1 <0>         0.0983
     28 H10        -0.5169    0.0601    2.1311 H         1 <0>         0.0884
     29 H11        -1.0172   -2.2968    2.1922 H         1 <0>         0.0971
     30 H12         0.2010   -2.6742    0.9281 H         1 <0>         0.0883
     31 H13        -0.6874   -2.9579   -1.3215 H         1 <0>         0.0527
     32 H14        -1.8132   -3.8124   -0.2396 H         1 <0>         0.0625
     33 H15        -2.7741   -3.4155   -2.3901 H         1 <0>         0.3823
     34 H16         2.2746    6.0093   -1.3840 H         1 <0>         0.3796
@<TRIPOS>BOND
     1    1    2 1
     2    1   22 1
     3    1   23 1
     4    1   24 1
     5    2   19 1
     6    2    3 1
     7    3    4 2
     8    3   25 1
     9    4    5 1
    10    5    9 1
    11    5    6 2
    12    6    7 1
    13    6   19 1
    14    7    8 2
    15    8    9 1
    16    8   26 1
    17    9   10 1
    18   10   11 1
    19   10   16 1
    20   10   12 1
    21   12   13 1
    22   12   27 1
    23   12   28 1
    24   13   14 1
    25   13   29 1
    26   13   30 1
    27   14   15 1
    28   14   16 1
    29   14   17 1
    30   17   18 1
    31   17   31 1
    32   17   32 1
    33   18   33 1
    34   19   20 1
    35   19   21 1
    36   21   34 1
@<TRIPOS>MOLECULE
ZINC32807465
   35    36     0     0     0
SMALL
USER_CHARGES
2-acetamido-N-(1,3,5-trimethylpyrazol-4-yl)thiazole-4-carboxamide
@<TRIPOS>ATOM
      1 C1         -0.6423    0.7792   -2.0601 C.3       1 <0>        -0.0669
      2 C2          0.2337    0.6608   -0.8395 C.2       1 <0>         0.0952
      3 C3          0.1162   -0.3118    0.1641 C.2       1 <0>        -0.0063
      4 C4          1.0897   -0.0819    1.0820 C.2       1 <0>         0.0768
      5 N1          1.7963    1.0015    0.6674 N.pl3     1 <0>        -0.3723
      6 N2          1.2371    1.4444   -0.5381 N.2       1 <0>        -0.2898
      7 C5          2.9407    1.6007    1.3585 C.3       1 <0>         0.1007
      8 C6          1.3407   -0.8831    2.3335 C.3       1 <0>        -0.0901
      9 N3         -0.8406   -1.3428    0.2113 N.am      1 <0>        -0.6433
     10 C7         -2.1543   -1.0459    0.1590 C.2       1 <0>         0.5941
     11 O1         -2.5115    0.1013   -0.0324 O.2       1 <0>        -0.5215
     12 C8         -3.1567   -2.1095    0.3335 C.2       1 <0>         0.0146
     13 C9         -4.4945   -1.8184    0.2874 C.2       1 <0>        -0.2025
     14 S1         -5.2016   -3.3838    0.5412 S.3       1 <0>         0.1894
     15 C10        -3.6847   -4.3121    0.6992 C.2       1 <0>         0.2984
     16 N4         -2.7759   -3.3713    0.5445 N.2       1 <0>        -0.5158
     17 N5         -3.5090   -5.6711    0.9260 N.am      1 <0>        -0.6248
     18 C11        -4.5815   -6.4766    1.0578 C.2       1 <0>         0.5146
     19 O2         -5.7001   -6.0147    0.9784 O.2       1 <0>        -0.5071
     20 C12        -4.3908   -7.9511    1.3038 C.3       1 <0>        -0.1691
     21 H1         -1.4012   -0.0169   -2.0453 H         1 <0>         0.0740
     22 H2         -0.0251    0.6807   -2.9653 H         1 <0>         0.0708
     23 H3         -1.1399    1.7602   -2.0605 H         1 <0>         0.0777
     24 H4          3.3046    2.4651    0.7837 H         1 <0>         0.0980
     25 H5          3.7451    0.8559    1.4495 H         1 <0>         0.0802
     26 H6          2.6316    1.9310    2.3612 H         1 <0>         0.0796
     27 H7          2.1971   -0.4565    2.8764 H         1 <0>         0.0720
     28 H8          1.5608   -1.9263    2.0630 H         1 <0>         0.0843
     29 H9          0.4474   -0.8512    2.9746 H         1 <0>         0.0833
     30 H10        -0.5163   -2.3909    0.2909 H         1 <0>         0.4355
     31 H11        -4.9809   -0.8667    0.1326 H         1 <0>         0.2079
     32 H12        -2.4945   -6.0900    0.9981 H         1 <0>         0.4564
     33 H13        -5.3732   -8.4397    1.3830 H         1 <0>         0.1058
     34 H14        -3.8320   -8.0974    2.2399 H         1 <0>         0.1001
     35 H15        -3.8281   -8.3925    0.4680 H         1 <0>         0.1003
@<TRIPOS>BOND
     1    1    2 1
     2    1   21 1
     3    1   22 1
     4    1   23 1
     5    2    6 2
     6    2    3 1
     7    3    4 2
     8    3    9 1
     9    4    5 1
    10    4    8 1
    11    5    6 1
    12    5    7 1
    13    7   24 1
    14    7   25 1
    15    7   26 1
    16    8   27 1
    17    8   28 1
    18    8   29 1
    19    9   10 am
    20    9   30 1
    21   10   11 2
    22   10   12 1
    23   12   16 1
    24   12   13 2
    25   13   14 1
    26   13   31 1
    27   14   15 1
    28   15   16 2
    29   15   17 1
    30   17   18 am
    31   17   32 1
    32   18   19 2
    33   18   20 1
    34   20   33 1
    35   20   34 1
    36   20   35 1
@<TRIPOS>MOLECULE
ZINC42784477
   42    43     0     0     0
SMALL
USER_CHARGES

@<TRIPOS>ATOM
      1 C1         -0.8604    1.4975   -1.0996 C.3       1 <0>        -0.1706
      2 C2         -0.8400   -0.0094   -1.1079 C.2       1 <0>         0.5114
      3 O1         -0.5393   -0.6062   -2.1200 O.2       1 <0>        -0.5435
      4 N1         -1.1558   -0.6938    0.0094 N.am      1 <0>        -0.6917
      5 C3         -1.1360   -2.1586    0.0013 C.3       1 <0>         0.1195
      6 H1         -0.3506   -2.5091   -0.6684 H         1 <0>         0.1070
      7 C4         -2.4914   -2.6870   -0.4776 C.3       1 <0>         0.0830
      8 H2         -2.7129   -2.2795   -1.4640 H         1 <0>         0.1099
      9 C5         -3.5781   -2.2563    0.5085 C.3       1 <0>         0.0632
     10 H3         -4.5336   -2.6850    0.2062 H         1 <0>         0.0859
     11 C6         -3.2204   -2.7471    1.9151 C.3       1 <0>         0.0462
     12 H4         -3.2292   -3.8369    1.9373 H         1 <0>         0.0902
     13 C7         -4.2602   -2.2014    2.9023 C.3       1 <0>         0.0648
     14 O2         -4.3187   -0.7777    2.7697 O.3       1 <0>        -0.3704
     15 C8         -4.6469   -0.3325    1.4515 C.3       1 <0>         0.2668
     16 O3         -3.6792   -0.8304    0.5238 O.3       1 <0>        -0.3605
     17 C9         -6.0344   -0.8517    1.0689 C.3       1 <0>        -0.2097
     18 C10        -4.6477    1.1971    1.4156 C.3       1 <0>        -0.1284
     19 O4         -1.9220   -2.2685    2.2719 O.3       1 <0>        -0.3865
     20 C11        -0.8697   -2.6753    1.4180 C.3       1 <0>         0.2693
     21 H5         -0.8241   -3.7643    1.4056 H         1 <0>         0.0674
     22 O5          0.3722   -2.1505    1.8917 O.3       1 <0>        -0.5313
     23 O6         -2.4492   -4.1135   -0.5491 O.3       1 <0>        -0.3494
     24 C12        -2.0570   -4.6540   -1.7136 C.2       1 <0>         0.4527
     25 O7         -1.7594   -3.9395   -2.6414 O.2       1 <0>        -0.4853
     26 C13        -1.9879   -6.1519   -1.8636 C.3       1 <0>        -0.1441
     27 H6         -0.5792    1.8701   -2.0846 H         1 <0>         0.0914
     28 H7         -1.8631    1.8459   -0.8520 H         1 <0>         0.0884
     29 H8         -0.1537    1.8663   -0.3563 H         1 <0>         0.0875
     30 H9         -1.3963   -0.2164    0.8188 H         1 <0>         0.4121
     31 H10        -5.2371   -2.6297    2.6779 H         1 <0>         0.0776
     32 H11        -3.9697   -2.4619    3.9200 H         1 <0>         0.1131
     33 H12        -6.7722   -0.4712    1.7753 H         1 <0>         0.0821
     34 H13        -6.2849   -0.5123    0.0638 H         1 <0>         0.0799
     35 H14        -6.0345   -1.9413    1.0951 H         1 <0>         0.0622
     36 H15        -3.6596    1.5674    1.6887 H         1 <0>         0.0747
     37 H16        -4.8979    1.5367    0.4105 H         1 <0>         0.0808
     38 H17        -5.3860    1.5768    2.1218 H         1 <0>         0.0833
     39 H18         0.6050   -2.4372    2.7854 H         1 <0>         0.3904
     40 H19        -2.9468   -6.5257   -2.2225 H         1 <0>         0.1078
     41 H20        -1.2067   -6.4097   -2.5788 H         1 <0>         0.1072
     42 H21        -1.7601   -6.6037   -0.8982 H         1 <0>         0.0954
@<TRIPOS>BOND
     1    1    2 1
     2    1   27 1
     3    1   28 1
     4    1   29 1
     5    2    3 2
     6    2    4 am
     7    4    5 1
     8    4   30 1
     9    5    6 1
    10    5   20 1
    11    5    7 1
    12    7    8 1
    13    7    9 1
    14    7   23 1
    15    9   10 1
    16    9   16 1
    17    9   11 1
    18   11   12 1
    19   11   13 1
    20   11   19 1
    21   13   14 1
    22   13   31 1
    23   13   32 1
    24   14   15 1
    25   15   16 1
    26   15   17 1
    27   15   18 1
    28   17   33 1
    29   17   34 1
    30   17   35 1
    31   18   36 1
    32   18   37 1
    33   18   38 1
    34   19   20 1
    35   20   21 1
    36   20   22 1
    37   22   39 1
    38   23   24 1
    39   24   25 2
    40   24   26 1
    41   26   40 1
    42   26   41 1
    43   26   42 1
@<TRIPOS>MOLECULE
ZINC04772841
   28    31     0     0     0
SMALL
USER_CHARGES

@<TRIPOS>ATOM
      1 C1         -0.0188    1.5334    0.0105 C.3       1 <0>        -0.1510
      2 C2          1.4412    2.0315   -0.0008 C.3       1 <0>         0.1387
      3 H1          1.5019    3.1198   -0.0006 H         1 <0>         0.1484
      4 C3          2.1337    1.4118    1.2340 C.3       1 <0>         0.0265
      5 H2          3.1009    1.8665    1.4482 H         1 <0>         0.1493
      6 C4          1.1528    1.4959    2.4240 C.3       1 <0>         0.0238
      7 O1          0.4118    0.2629    2.3896 O.3       1 <0>        -0.3527
      8 C5          0.8493   -0.4532    1.2163 C.3       1 <0>         0.1946
      9 H3          0.7983   -1.5319    1.3640 H         1 <0>         0.1502
     10 C6          0.0021   -0.0041    0.0020 C.3       1 <0>         0.3258
     11 N1          0.5945   -0.4502   -1.2719 N.pl3     1 <0>        -0.7015
     12 C7          1.6682    0.2841   -1.7580 C.2       1 <0>         0.5576
     13 N2          2.0760    1.4438   -1.1890 N.pl3     1 <0>        -0.3896
     14 N3          3.1558    1.9024   -1.9381 N.2       1 <0>        -0.2498
     15 C8          3.3519    1.0240   -2.8906 C.2       1 <0>         0.1608
     16 N4          2.4496    0.0430   -2.7768 N.2       1 <0>        -0.5323
     17 C9          4.4243    1.1057   -3.9463 C.3       1 <0>         0.5773
     18 F1          5.4417    0.1925   -3.6492 F         1 <0>        -0.1590
     19 F2          3.8733    0.7999   -5.1953 F         1 <0>        -0.1556
     20 F3          4.9534    2.4004   -3.9743 F         1 <0>        -0.1574
     21 O2         -1.3258   -0.5126    0.1442 O.3       1 <0>        -0.5189
     22 O3          2.2226   -0.0122    0.9702 O.3       1 <0>        -0.3480
     23 H4         -0.5226    1.8899    0.9089 H         1 <0>         0.1313
     24 H5         -0.5396    1.8995   -0.8743 H         1 <0>         0.1044
     25 H6          1.7022    1.5809    3.3616 H         1 <0>         0.1037
     26 H7          0.4804    2.3449    2.3006 H         1 <0>         0.0991
     27 H8          0.2503   -1.2216   -1.7486 H         1 <0>         0.4299
     28 H9         -1.3791   -1.4781    0.1462 H         1 <0>         0.3944
@<TRIPOS>BOND
     1    1   10 1
     2    1    2 1
     3    1   23 1
     4    1   24 1
     5    2    3 1
     6    2   13 1
     7    2    4 1
     8    4    5 1
     9    4   22 1
    10    4    6 1
    11    6    7 1
    12    6   25 1
    13    6   26 1
    14    7    8 1
    15    8    9 1
    16    8   10 1
    17    8   22 1
    18   10   11 1
    19   10   21 1
    20   11   12 1
    21   11   27 1
    22   12   16 2
    23   12   13 1
    24   13   14 1
    25   14   15 2
    26   15   16 1
    27   15   17 1
    28   17   18 1
    29   17   19 1
    30   17   20 1
    31   21   28 1
@<TRIPOS>MOLECULE
ZINC61841567
   27    29     0     0     0
SMALL
USER_CHARGES

@<TRIPOS>ATOM
      1 C1         -0.0076    1.3788   -0.1705 C.ar      1 <0>        -0.1867
      2 C2          1.1590    2.0928    0.0585 C.ar      1 <0>         0.2583
      3 C3          2.3665    1.4161    0.2241 C.ar      1 <0>         0.0385
      4 C4          2.3975    0.0306    0.1578 C.ar      1 <0>        -0.0514
      5 C5          1.2306   -0.6809   -0.0718 C.ar      1 <0>         0.0096
      6 C6          0.0256   -0.0063   -0.2346 C.ar      1 <0>         0.1246
      7 O1         -1.1312   -0.6904   -0.4532 O.3       1 <0>        -0.3013
      8 C7         -1.0038   -2.0500   -0.8830 C.3       1 <0>         0.0189
      9 C8          0.0403   -2.7391    0.0059 C.3       1 <0>         0.0213
     10 O2          1.2818   -2.0408   -0.1374 O.3       1 <0>        -0.3040
     11 N1          3.5480    2.1347    0.4577 N.pl3     1 <0>        -0.3033
     12 C9          4.7331    1.9645   -0.1651 C.2       1 <0>         0.2813
     13 N2          5.5839    2.8220    0.3302 N.2       1 <0>        -0.5023
     14 C10         4.9851    3.5630    1.2750 C.2       1 <0>         0.3041
     15 N3          3.7289    3.1770    1.3815 N.2       1 <0>        -0.2600
     16 C11         5.6059    4.6042    2.0373 C.1       1 <0>         0.3039
     17 N4          6.0983    5.4303    2.6420 N.1       1 <0>        -0.3515
     18 N5          1.1242    3.4905    0.1229 N.pl3     1 <0>        -0.8578
     19 H1         -0.9443    1.9019   -0.2948 H         1 <0>         0.1476
     20 H2          3.3327   -0.4944    0.2851 H         1 <0>         0.1478
     21 H3         -1.9632   -2.5580   -0.7847 H         1 <0>         0.1266
     22 H4         -0.6773   -2.0778   -1.9226 H         1 <0>         0.0832
     23 H5         -0.2828   -2.7050    1.0464 H         1 <0>         0.0794
     24 H6          0.1633   -3.7758   -0.3076 H         1 <0>         0.1261
     25 H7          4.9421    1.2421   -0.9403 H         1 <0>         0.2365
     26 H8          0.2735    3.9560    0.0996 H         1 <0>         0.4061
     27 H9          1.9507    3.9936    0.1907 H         1 <0>         0.4045
@<TRIPOS>BOND
     1    1    6 ar
     2    1    2 ar
     3    1   19 1
     4    2    3 ar
     5    2   18 1
     6    3    4 ar
     7    3   11 1
     8    4    5 ar
     9    4   20 1
    10    5   10 1
    11    5    6 ar
    12    6    7 1
    13    7    8 1
    14    8    9 1
    15    8   21 1
    16    8   22 1
    17    9   10 1
    18    9   23 1
    19    9   24 1
    20   11   15 1
    21   11   12 1
    22   12   13 2
    23   12   25 1
    24   13   14 1
    25   14   15 2
    26   14   16 1
    27   16   17 3
    28   18   26 1
    29   18   27 1
@<TRIPOS>MOLECULE
ZINC32183132
   39    42     0     0     0
SMALL
USER_CHARGES
6-(4-piperidyl)-3-(p-tolyl)-[1,2,4]triazolo[3,4-b][1,3,4]thiadiazole
@<TRIPOS>ATOM
      1 C1         -4.7089    4.6380    0.0525 C.3       1 <0>        -0.1266
      2 C2         -3.4798    3.7661    0.0407 C.ar      1 <0>        -0.0520
      3 C3         -3.5871    2.4205    0.3446 C.ar      1 <0>        -0.1201
      4 C4         -2.4659    1.6168    0.3360 C.ar      1 <0>        -0.0582
      5 C5         -1.2211    2.1640    0.0199 C.ar      1 <0>        -0.0545
      6 C6         -1.1192    3.5236   -0.2806 C.ar      1 <0>        -0.0798
      7 C7         -2.2491    4.3149   -0.2735 C.ar      1 <0>        -0.1245
      8 C8         -0.0157    1.3093    0.0092 C.2       1 <0>         0.3070
      9 N1          0.0021   -0.0041    0.0020 N.2       1 <0>        -0.2406
     10 N2          1.2186   -0.4257   -0.0119 N.2       1 <0>        -0.2045
     11 C9          2.0319    0.5891   -0.0142 C.2       1 <0>         0.1041
     12 N3          1.3000    1.7505   -0.0010 N.pl3     1 <0>        -0.3540
     13 N4          2.0213    2.9370   -0.0015 N.2       1 <0>        -0.2378
     14 C10         3.3209    2.9398   -0.0139 C.2       1 <0>         0.1176
     15 S1          3.7011    1.1946   -0.0269 S.3       1 <0>         0.1402
     16 C11         4.2651    4.1144   -0.0166 C.3       1 <0>        -0.0011
     17 C12         5.1387    4.0658   -1.2731 C.3       1 <0>        -0.1499
     18 C13         6.1371    5.2252   -1.2394 C.3       1 <0>         0.0037
     19 N5          6.9716    5.1211   -0.0355 N.4       1 <0>        -0.5395
     20 C14         6.1584    5.2137    1.1837 C.3       1 <0>         0.0010
     21 C15         5.1617    4.0531    1.2231 C.3       1 <0>        -0.1501
     22 H1         -5.5861    4.0315    0.3222 H         1 <0>         0.0731
     23 H2         -4.8581    5.0749   -0.9459 H         1 <0>         0.0775
     24 H3         -4.5796    5.4440    0.7898 H         1 <0>         0.0768
     25 H4         -4.5507    1.9984    0.5887 H         1 <0>         0.1378
     26 H5         -2.5509    0.5667    0.5738 H         1 <0>         0.1409
     27 H6         -0.1584    3.9541   -0.5217 H         1 <0>         0.1274
     28 H7         -2.1724    5.3659   -0.5097 H         1 <0>         0.1316
     29 H8          3.6702    5.0396   -0.0064 H         1 <0>         0.1347
     30 H9          5.6839    3.1109   -1.3039 H         1 <0>         0.1011
     31 H10         4.5021    4.1536   -2.1659 H         1 <0>         0.1243
     32 H11         6.7774    5.1838   -2.1329 H         1 <0>         0.1432
     33 H12         5.5904    6.1796   -1.2240 H         1 <0>         0.1346
     34 H13         7.4957    4.1540   -0.0352 H         1 <0>         0.4527
     35 H14         6.8134    5.1640    2.0660 H         1 <0>         0.1436
     36 H15         5.6103    6.1674    1.1873 H         1 <0>         0.1344
     37 H16         4.5415    4.1306    2.1283 H         1 <0>         0.1241
     38 H17         5.7081    3.0984    1.2336 H         1 <0>         0.1010
     39 H18         7.7087    5.9376   -0.0285 H         1 <0>         0.4609
@<TRIPOS>BOND
     1    1    2 1
     2    1   22 1
     3    1   23 1
     4    1   24 1
     5    2    7 ar
     6    2    3 ar
     7    3    4 ar
     8    3   25 1
     9    4    5 ar
    10    4   26 1
    11    5    6 ar
    12    5    8 1
    13    6    7 ar
    14    6   27 1
    15    7   28 1
    16    8   12 1
    17    8    9 2
    18    9   10 1
    19   10   11 2
    20   11   15 1
    21   11   12 1
    22   12   13 1
    23   13   14 2
    24   14   15 1
    25   14   16 1
    26   16   21 1
    27   16   17 1
    28   16   29 1
    29   17   18 1
    30   17   30 1
    31   17   31 1
    32   18   19 1
    33   18   32 1
    34   18   33 1
    35   19   20 1
    36   19   34 1
    37   19   39 1
    38   20   21 1
    39   20   35 1
    40   20   36 1
    41   21   37 1
    42   21   38 1
@<TRIPOS>MOLECULE
ZINC36268631
   38    41     0     0     0
SMALL
USER_CHARGES

@<TRIPOS>ATOM
      1 C1          2.8882    0.9909    2.8429 C.3       1 <0>        -0.1067
      2 C2          2.6282   -0.4667    2.5623 C.2       1 <0>        -0.1109
      3 C3          3.6472   -1.3010    2.3087 C.2       1 <0>        -0.1137
      4 S1          2.8448   -2.8717    2.0479 S.3       1 <0>         0.1286
      5 C4          1.1623   -2.3651    2.2866 C.ar      1 <0>         0.1171
      6 C5          1.2717   -0.9857    2.5693 C.ar      1 <0>        -0.1724
      7 C6          0.0421   -0.3140    2.8122 C.ar      1 <0>         0.4738
      8 N1         -1.0882   -1.0004    2.7648 N.ar      1 <0>        -0.5424
      9 C7         -1.1152   -2.2939    2.4986 C.ar      1 <0>         0.3294
     10 N2         -0.0088   -2.9695    2.2549 N.ar      1 <0>        -0.4698
     11 N3          0.0278    1.0399    3.0949 N.pl3     1 <0>        -0.6567
     12 C8         -0.2071    2.1177    2.1181 C.3       1 <0>         0.1222
     13 C9          0.5165    3.3510    2.7105 C.3       1 <0>        -0.1280
     14 C10         0.2580    3.1819    4.2271 C.3       1 <0>        -0.1189
     15 H1          0.9931    3.6919    4.8495 H         1 <0>         0.1353
     16 C11         0.2382    1.6393    4.4197 C.3       1 <0>         0.1493
     17 H2          1.1599    1.2818    4.8787 H         1 <0>         0.1176
     18 C12        -0.9950    1.3616    5.2991 C.3       1 <0>        -0.0313
     19 N4         -1.6046    2.6692    5.6225 N.4       1 <0>        -0.5148
     20 C13        -1.1991    3.6030    4.5304 C.3       1 <0>         0.0018
     21 C14         5.1199   -0.9858    2.2558 C.3       1 <0>        -0.0799
     22 H3          2.9348    1.1509    3.9201 H         1 <0>         0.0658
     23 H4          3.8355    1.2846    2.3907 H         1 <0>         0.0721
     24 H5          2.0825    1.5915    2.4208 H         1 <0>         0.0801
     25 H6         -2.0646   -2.8079    2.4718 H         1 <0>         0.2134
     26 H7          0.2218    1.8540    1.1513 H         1 <0>         0.0825
     27 H8         -1.2747    2.3148    2.0197 H         1 <0>         0.0650
     28 H9          1.5838    3.3169    2.4923 H         1 <0>         0.1016
     29 H10         0.0729    4.2758    2.3417 H         1 <0>         0.1026
     30 H11        -1.7087    0.7446    4.7531 H         1 <0>         0.1432
     31 H12        -0.6907    0.8573    6.2162 H         1 <0>         0.1348
     32 H13        -2.6093    2.5845    5.6618 H         1 <0>         0.4349
     33 H14        -1.2385    4.6420    4.8576 H         1 <0>         0.1457
     34 H15        -1.8330    3.4500    3.6570 H         1 <0>         0.1357
     35 H16         5.5553   -1.1167    3.2465 H         1 <0>         0.0896
     36 H17         5.6103   -1.6579    1.5517 H         1 <0>         0.0840
     37 H18         5.2593    0.0454    1.9311 H         1 <0>         0.0892
     38 H19        -1.2483    3.0110    6.5024 H         1 <0>         0.4303
@<TRIPOS>BOND
     1    1    2 1
     2    1   22 1
     3    1   23 1
     4    1   24 1
     5    2    6 1
     6    2    3 2
     7    3    4 1
     8    3   21 1
     9    4    5 1
    10    5   10 ar
    11    5    6 ar
    12    6    7 ar
    13    7    8 ar
    14    7   11 1
    15    8    9 ar
    16    9   10 ar
    17    9   25 1
    18   11   16 1
    19   11   12 1
    20   12   13 1
    21   12   26 1
    22   12   27 1
    23   13   14 1
    24   13   28 1
    25   13   29 1
    26   14   15 1
    27   14   20 1
    28   14   16 1
    29   16   17 1
    30   16   18 1
    31   18   19 1
    32   18   30 1
    33   18   31 1
    34   19   20 1
    35   19   32 1
    36   19   38 1
    37   20   33 1
    38   20   34 1
    39   21   35 1
    40   21   36 1
    41   21   37 1
@<TRIPOS>MOLECULE
ZINC48894013
   41    44     0     0     0
SMALL
USER_CHARGES

@<TRIPOS>ATOM
      1 C1         -0.0184    1.5028    0.0103 C.3       1 <0>        -0.0869
      2 C2          0.0021   -0.0041    0.0020 C.ar      1 <0>         0.3846
      3 N1          0.0052   -0.6431   -1.1544 N.ar      1 <0>        -0.5837
      4 C3          0.0225   -1.9646   -1.2291 C.ar      1 <0>         0.4819
      5 C4          0.0384   -2.7225   -0.0261 C.ar      1 <0>        -0.2264
      6 C5          0.0588   -4.1858    0.1335 C.2       1 <0>        -0.1276
      7 C6          0.0702   -4.6591    1.3898 C.2       1 <0>        -0.1611
      8 S1          0.0581   -3.2156    2.4286 S.3       1 <0>         0.1734
      9 C7          0.0344   -1.9739    1.1646 C.ar      1 <0>         0.1439
     10 N2          0.0218   -0.6544    1.1494 N.ar      1 <0>        -0.5026
     11 C8          0.0854   -6.1638    1.4306 C.3       1 <0>        -0.0420
     12 C9         -0.3529   -6.5943    0.0136 C.3       1 <0>        -0.1163
     13 C10         0.0744   -5.3767   -0.8293 C.3       1 <0>        -0.0610
     14 N3          0.0247   -2.5984   -2.4585 N.pl3     1 <0>        -0.7092
     15 C11         0.0077   -1.8066   -3.6909 C.3       1 <0>         0.1386
     16 H1         -0.5799   -0.8996   -3.5491 H         1 <0>         0.1354
     17 C12         1.4497   -1.4501   -4.1196 C.3       1 <0>        -0.1577
     18 C13         1.7779   -2.5397   -5.1711 C.3       1 <0>        -0.0080
     19 N4          0.4899   -2.7181   -5.8891 N.4       1 <0>        -0.3941
     20 C14        -0.5656   -2.6386   -4.8530 C.3       1 <0>        -0.0183
     21 C15         0.4551   -4.0303   -6.5484 C.3       1 <0>        -0.0440
     22 H2          1.0042    1.8801    0.0026 H         1 <0>         0.0937
     23 H3         -0.5455    1.8639   -0.8728 H         1 <0>         0.0900
     24 H4         -0.5286    1.8543    0.9071 H         1 <0>         0.0945
     25 H5          1.0900   -6.5284    1.6452 H         1 <0>         0.0943
     26 H6         -0.6207   -6.5313    2.1752 H         1 <0>         0.0894
     27 H7          0.1766   -7.4930   -0.3026 H         1 <0>         0.0899
     28 H8         -1.4318   -6.7420   -0.0332 H         1 <0>         0.0815
     29 H9         -0.6334   -5.2137   -1.6421 H         1 <0>         0.0650
     30 H10         1.0781   -5.5270   -1.2269 H         1 <0>         0.0806
     31 H11         0.0374   -3.5673   -2.5046 H         1 <0>         0.4125
     32 H12         1.4843   -0.4576   -4.5688 H         1 <0>         0.1114
     33 H13         2.1313   -1.5148   -3.2714 H         1 <0>         0.1186
     34 H14         2.5542   -2.1941   -5.8537 H         1 <0>         0.1406
     35 H15         2.0780   -3.4671   -4.6833 H         1 <0>         0.1317
     36 H16        -0.8195   -3.6393   -4.5033 H         1 <0>         0.1342
     37 H17        -1.4506   -2.1487   -5.2592 H         1 <0>         0.1485
     38 H18         0.5836   -4.8151   -5.8029 H         1 <0>         0.1203
     39 H19        -0.5039   -4.1594   -7.0503 H         1 <0>         0.1251
     40 H20         1.2596   -4.0902   -7.2814 H         1 <0>         0.1265
     41 H21         0.3655   -1.9825   -6.5684 H         1 <0>         0.4329
@<TRIPOS>BOND
     1    1    2 1
     2    1   22 1
     3    1   23 1
     4    1   24 1
     5    2   10 ar
     6    2    3 ar
     7    3    4 ar
     8    4    5 ar
     9    4   14 1
    10    5    9 ar
    11    5    6 1
    12    6   13 1
    13    6    7 2
    14    7    8 1
    15    7   11 1
    16    8    9 1
    17    9   10 ar
    18   11   12 1
    19   11   25 1
    20   11   26 1
    21   12   13 1
    22   12   27 1
    23   12   28 1
    24   13   29 1
    25   13   30 1
    26   14   15 1
    27   14   31 1
    28   15   16 1
    29   15   20 1
    30   15   17 1
    31   17   18 1
    32   17   32 1
    33   17   33 1
    34   18   19 1
    35   18   34 1
    36   18   35 1
    37   19   20 1
    38   19   21 1
    39   19   41 1
    40   20   36 1
    41   20   37 1
    42   21   38 1
    43   21   39 1
    44   21   40 1
@<TRIPOS>MOLECULE
ZINC49664242
   42    44     0     0     0
SMALL
USER_CHARGES

@<TRIPOS>ATOM
      1 C1         -0.0219    1.5146   -0.0166 C.3       1 <0>        -0.1503
      2 C2          0.0020   -0.0153   -0.0137 C.3       1 <0>        -0.1356
      3 H1         -1.0196   -0.3954   -0.0060 H         1 <0>         0.1013
      4 C3          0.7302   -0.5213   -1.2742 C.3       1 <0>        -0.0144
      5 N1          0.3891   -1.9272   -1.4976 N.4       1 <0>        -0.5101
      6 C4          1.5754   -2.7973   -1.3374 C.3       1 <0>        -0.0030
      7 C5          2.3639   -2.4076   -0.0904 C.3       1 <0>        -0.1746
      8 C6          1.6039   -2.8744    1.1616 C.3       1 <0>         0.1061
      9 N2          0.5030   -1.9510    1.3758 N.pl3     1 <0>        -0.6456
     10 C7          0.7372   -0.5095    1.2220 C.3       1 <0>         0.1099
     11 C8         -0.7651   -2.4286    1.7249 C.ar      1 <0>         0.1852
     12 C9         -1.0062   -3.7956    1.7636 C.ar      1 <0>        -0.1910
     13 C10        -2.2584   -4.2674    2.1069 C.ar      1 <0>        -0.0641
     14 C11        -3.2777   -3.3787    2.4148 C.ar      1 <0>         0.0138
     15 C12        -3.0389   -2.0100    2.3793 C.ar      1 <0>         0.1011
     16 C13        -1.7810   -1.5367    2.0381 C.ar      1 <0>        -0.1880
     17 O1         -4.0246   -1.1228    2.6859 O.3       1 <0>        -0.3049
     18 C14        -5.3672   -1.6194    2.6653 C.3       1 <0>         0.0204
     19 C15        -5.3956   -2.9591    3.4134 C.3       1 <0>         0.0193
     20 O2         -4.5068   -3.8628    2.7477 O.3       1 <0>        -0.3059
     21 H2          1.0000    1.8939   -0.0243 H         1 <0>         0.0705
     22 H3         -0.5473    1.8681   -0.9037 H         1 <0>         0.0719
     23 H4         -0.5353    1.8716    0.8762 H         1 <0>         0.0793
     24 H5          0.4199    0.0699   -2.1357 H         1 <0>         0.1338
     25 H6          1.8071   -0.4257   -1.1353 H         1 <0>         0.1360
     26 H7         -0.3175   -2.2057   -0.8334 H         1 <0>         0.4279
     27 H8          1.2510   -3.8340   -1.2478 H         1 <0>         0.1323
     28 H9          2.2159   -2.6964   -2.2135 H         1 <0>         0.1319
     29 H10         3.3450   -2.8816   -0.1179 H         1 <0>         0.1226
     30 H11         2.4840   -1.3247   -0.0600 H         1 <0>         0.1005
     31 H12         1.2171   -3.8815    1.0056 H         1 <0>         0.0967
     32 H13         2.2699   -2.8626    2.0245 H         1 <0>         0.0813
     33 H14         1.8055   -0.3248    1.1087 H         1 <0>         0.0972
     34 H15         0.3664    0.0167    2.1016 H         1 <0>         0.0896
     35 H16        -0.2144   -4.4903    1.5250 H         1 <0>         0.1344
     36 H17        -2.4441   -5.3309    2.1358 H         1 <0>         0.1407
     37 H18        -1.5929   -0.4735    2.0125 H         1 <0>         0.1369
     38 H19        -6.0297   -0.9085    3.1592 H         1 <0>         0.1284
     39 H20        -5.6887   -1.7672    1.6344 H         1 <0>         0.0813
     40 H21        -5.0679   -2.8125    4.4426 H         1 <0>         0.0809
     41 H22        -6.4074   -3.3644    3.4033 H         1 <0>         0.1279
     42 H23         0.0240   -2.0345   -2.4321 H         1 <0>         0.4286
@<TRIPOS>BOND
     1    1    2 1
     2    1   21 1
     3    1   22 1
     4    1   23 1
     5    2    3 1
     6    2   10 1
     7    2    4 1
     8    4    5 1
     9    4   24 1
    10    4   25 1
    11    5    6 1
    12    5   26 1
    13    5   42 1
    14    6    7 1
    15    6   27 1
    16    6   28 1
    17    7    8 1
    18    7   29 1
    19    7   30 1
    20    8    9 1
    21    8   31 1
    22    8   32 1
    23    9   10 1
    24    9   11 1
    25   10   33 1
    26   10   34 1
    27   11   16 ar
    28   11   12 ar
    29   12   13 ar
    30   12   35 1
    31   13   14 ar
    32   13   36 1
    33   14   20 1
    34   14   15 ar
    35   15   16 ar
    36   15   17 1
    37   16   37 1
    38   17   18 1
    39   18   19 1
    40   18   38 1
    41   18   39 1
    42   19   20 1
    43   19   40 1
    44   19   41 1
@<TRIPOS>MOLECULE
ZINC62709066
   37    40     0     0     0
SMALL
USER_CHARGES

@<TRIPOS>ATOM
      1 C1          0.1434    0.6236    1.9223 C.ar      1 <0>        -0.1213
      2 C2          1.3549    1.2230    2.2421 C.ar      1 <0>        -0.0419
      3 C3          2.5216    0.7993    1.6462 C.ar      1 <0>        -0.1314
      4 C4          2.4849   -0.2357    0.7189 C.ar      1 <0>         0.0950
      5 C5          1.2594   -0.8433    0.3949 C.ar      1 <0>        -0.0164
      6 C6          0.0866   -0.3934    1.0149 C.ar      1 <0>        -0.0245
      7 N1          1.5104   -1.8077   -0.5214 N.2       1 <0>        -0.1760
      8 N2          2.7676   -1.8507   -0.7903 N.2       1 <0>        -0.0174
      9 N3          3.4411   -0.8784   -0.0362 N.pl3     1 <0>        -0.3859
     10 C7          4.8120   -0.6136   -0.0488 C.ar      1 <0>         0.2370
     11 C8          5.2682    0.6928   -0.1456 C.ar      1 <0>        -0.1265
     12 C9          6.6245    0.9547   -0.1580 C.ar      1 <0>        -0.0130
     13 C10         7.5389   -0.0806   -0.0738 C.ar      1 <0>        -0.1404
     14 C11         7.1035   -1.3887    0.0233 C.ar      1 <0>         0.1735
     15 C12         5.7333   -1.6666    0.0422 C.ar      1 <0>        -0.1973
     16 C13         5.2597   -3.0603    0.1512 C.cat     1 <0>         0.5888
     17 N4          4.5788   -3.4135    1.2323 N.pl3     1 <0>        -0.6256
     18 C14         4.0742   -4.7763    1.4077 C.3       1 <0>         0.0743
     19 C15         4.9920   -5.7505    0.6605 C.3       1 <0>        -0.1628
     20 C16         5.0945   -5.2957   -0.7997 C.3       1 <0>         0.0730
     21 N5          5.5305   -3.8989   -0.8389 N.pl3     1 <0>        -0.6158
     22 F1          7.9999   -2.3963    0.1043 F         1 <0>        -0.1121
     23 H1         -0.7633    0.9635    2.4008 H         1 <0>         0.1496
     24 H2          1.3818    2.0270    2.9627 H         1 <0>         0.1503
     25 H3          3.4610    1.2692    1.8977 H         1 <0>         0.1396
     26 H4         -0.8616   -0.8515    0.7750 H         1 <0>         0.1487
     27 H5          4.5615    1.5068   -0.2117 H         1 <0>         0.1590
     28 H6          6.9735    1.9739   -0.2343 H         1 <0>         0.1680
     29 H7          8.5972    0.1345   -0.0843 H         1 <0>         0.1685
     30 H8          4.0628   -5.0271    2.4684 H         1 <0>         0.1257
     31 H9          3.0638   -4.8456    1.0047 H         1 <0>         0.1084
     32 H10         5.9818   -5.7455    1.1168 H         1 <0>         0.0961
     33 H11         4.5727   -6.7558    0.7032 H         1 <0>         0.1315
     34 H12         5.8167   -5.9199   -1.3260 H         1 <0>         0.1280
     35 H13         4.1189   -5.3827   -1.2779 H         1 <0>         0.1125
     36 H14         6.0324   -3.5806   -1.6055 H         1 <0>         0.4429
     37 H15         4.4114   -2.7537    1.9234 H         1 <0>         0.4381
@<TRIPOS>BOND
     1    1    6 ar
     2    1    2 ar
     3    1   23 1
     4    2    3 ar
     5    2   24 1
     6    3    4 ar
     7    3   25 1
     8    4    9 1
     9    4    5 ar
    10    5    6 ar
    11    5    7 1
    12    6   26 1
    13    7    8 2
    14    8    9 1
    15    9   10 1
    16   10   15 ar
    17   10   11 ar
    18   11   12 ar
    19   11   27 1
    20   12   13 ar
    21   12   28 1
    22   13   14 ar
    23   13   29 1
    24   14   15 ar
    25   14   22 1
    26   15   16 1
    27   16   21 1
    28   16   17 2
    29   17   18 1
    30   17   37 1
    31   18   19 1
    32   18   30 1
    33   18   31 1
    34   19   20 1
    35   19   32 1
    36   19   33 1
    37   20   21 1
    38   20   34 1
    39   20   35 1
    40   21   36 1
@<TRIPOS>MOLECULE
ZINC12501257
   33    33     0     0     0
SMALL
USER_CHARGES
[(2S,3S,4R,5S,6S)-5-acetamido-4,6-dihydroxy-2-(hydroxymethyl)tetrahydropyran-3-yl] hydrogen sulfate
@<TRIPOS>ATOM
      1 C1         -0.8352    1.2069   -0.2343 C.3       1 <0>        -0.1709
      2 C2         -1.3118    1.6945    1.1097 C.2       1 <0>         0.5097
      3 O1         -1.5938    0.8972    1.9790 O.2       1 <0>        -0.5145
      4 N1         -1.4245    3.0167    1.3456 N.am      1 <0>        -0.7265
      5 C3         -1.8877    3.4907    2.6521 C.3       1 <0>         0.0936
      6 H1         -1.5204    2.8244    3.4326 H         1 <0>         0.1215
      7 C4         -1.3606    4.9076    2.8988 C.3       1 <0>         0.0789
      8 H2         -0.2715    4.8899    2.9379 H         1 <0>         0.1056
      9 C5         -1.9147    5.4219    4.2311 C.3       1 <0>         0.1084
     10 H3         -1.5893    6.4502    4.3883 H         1 <0>         0.1133
     11 C6         -3.4443    5.3694    4.1931 C.3       1 <0>         0.1148
     12 H4         -3.8111    6.0281    3.4059 H         1 <0>         0.0913
     13 O2         -3.8672    4.0301    3.9293 O.3       1 <0>        -0.3811
     14 C7         -3.4183    3.5128    2.6750 C.3       1 <0>         0.2669
     15 H5         -3.7848    4.1473    1.8680 H         1 <0>         0.0548
     16 O3         -3.9168    2.1849    2.5013 O.3       1 <0>        -0.5244
     17 C8         -4.0041    5.8252    5.5420 C.3       1 <0>         0.0782
     18 O4         -5.4297    5.8913    5.4683 O.3       1 <0>        -0.5709
     19 O5         -1.4350    4.5997    5.2970 O.3       1 <0>        -0.7584
     20 S1         -0.2087    5.1574    6.0052 S.o2      1 <0>         2.7627
     21 O6          0.2305    4.1524    6.9087 O.2       1 <0>        -1.0533
     22 O7          0.6342    5.6948    4.9952 O.2       1 <0>        -1.0875
     23 O8         -1.7870    5.7674    1.8401 O.3       1 <0>        -0.5502
     24 H6         -0.8087    0.1172   -0.2369 H         1 <0>         0.0910
     25 H7          0.1647    1.5951   -0.4280 H         1 <0>         0.0860
     26 H8         -1.5170    1.5556   -1.0099 H         1 <0>         0.0852
     27 H9         -1.1989    3.6544    0.6504 H         1 <0>         0.3930
     28 H10        -4.8818    2.1233    2.5056 H         1 <0>         0.3779
     29 H11        -3.7129    5.1142    6.3152 H         1 <0>         0.0711
     30 H12        -3.6069    6.8104    5.7861 H         1 <0>         0.0745
     31 H13        -5.8534    6.1741    6.2902 H         1 <0>         0.3795
     32 H14        -1.4774    5.4969    0.9648 H         1 <0>         0.3780
     33 O9         -0.6743    6.3319    6.8537 O.3       1 <0>        -1.0983
@<TRIPOS>BOND
     1    1    2 1
     2    1   24 1
     3    1   25 1
     4    1   26 1
     5    2    3 2
     6    2    4 am
     7    4    5 1
     8    4   27 1
     9    5    6 1
    10    5   14 1
    11    5    7 1
    12    7    8 1
    13    7    9 1
    14    7   23 1
    15    9   10 1
    16    9   11 1
    17    9   19 1
    18   11   12 1
    19   11   13 1
    20   11   17 1
    21   13   14 1
    22   14   15 1
    23   14   16 1
    24   16   28 1
    25   17   18 1
    26   17   29 1
    27   17   30 1
    28   18   31 1
    29   19   20 1
    30   20   21 2
    31   20   22 2
    32   20   33 1
    33   23   32 1
@<TRIPOS>MOLECULE
ZINC38653079
   30    33     0     0     0
SMALL
USER_CHARGES

@<TRIPOS>ATOM
      1 C1         -0.0126    1.0758    0.0080 C.2       1 <0>         0.2510
      2 N1         -1.0870    1.8092    0.0278 N.2       1 <0>        -0.4302
      3 C2         -0.7366    3.1184    0.0295 C.2       1 <0>        -0.1397
      4 C3          0.6616    3.1743    0.0090 C.2       1 <0>         0.3077
      5 N2          1.0933    1.8756    0.0017 N.pl3     1 <0>        -0.4379
      6 C4          2.4876    1.4261   -0.0136 C.3       1 <0>         0.3019
      7 H1          3.1005    2.1019    0.5829 H         1 <0>         0.1352
      8 C5          3.0112    1.3888   -1.4687 C.3       1 <0>        -0.0027
      9 H2          3.5644    2.2861   -1.7460 H         1 <0>         0.1317
     10 C6          3.8962    0.1075   -1.4515 C.3       1 <0>         0.0154
     11 H3          4.9085    0.2950   -1.0935 H         1 <0>         0.1477
     12 C7          3.0815   -0.7953   -0.4980 C.3       1 <0>        -0.0041
     13 O1          2.5757    0.0957    0.5139 O.3       1 <0>        -0.3549
     14 O2          3.8708   -0.4224   -2.7887 O.3       1 <0>        -0.6449
     15 P1          2.3634   -0.0953   -3.3022 P.3       1 <0>         2.0699
     16 O3          1.4443   -1.3221   -3.1092 O.2       1 <0>        -1.0389
     17 O4          1.8855    1.1369   -2.3310 O.3       1 <0>        -0.6438
     18 O5          2.3763    0.3464   -4.7826 O.3       1 <0>        -1.0410
     19 N3          1.2776    4.3622    0.0062 N.2       1 <0>        -0.5748
     20 C8          0.5917    5.4832    0.0223 C.2       1 <0>         0.6459
     21 N4         -0.7711    5.4936    0.0430 N.am      1 <0>        -0.6568
     22 C9         -1.4625    4.3324    0.0467 C.2       1 <0>         0.5970
     23 O6         -2.6816    4.3312    0.0652 O.2       1 <0>        -0.5154
     24 N5          1.2672    6.6777    0.0185 N.pl3     1 <0>        -0.8235
     25 H4          0.0021   -0.0041    0.0020 H         1 <0>         0.2182
     26 H5          2.2584   -1.2676   -1.0341 H         1 <0>         0.1086
     27 H6          3.7257   -1.5511   -0.0488 H         1 <0>         0.1218
     28 H7         -1.2472    6.3387    0.0549 H         1 <0>         0.4156
     29 H8          0.7747    7.5134    0.0303 H         1 <0>         0.4141
     30 H9          2.2370    6.6865    0.0042 H         1 <0>         0.4268
@<TRIPOS>BOND
     1    1   25 1
     2    1    5 1
     3    1    2 2
     4    2    3 1
     5    3    4 2
     6    3   22 1
     7    4    5 1
     8    4   19 1
     9    5    6 1
    10    6    7 1
    11    6   13 1
    12    6    8 1
    13    8    9 1
    14    8   17 1
    15    8   10 1
    16   10   11 1
    17   10   12 1
    18   10   14 1
    19   12   13 1
    20   12   26 1
    21   12   27 1
    22   14   15 1
    23   15   16 2
    24   15   17 1
    25   15   18 1
    26   19   20 2
    27   20   21 1
    28   20   24 1
    29   21   28 1
    30   21   22 am
    31   22   23 2
    32   24   30 1
    33   24   29 1
@<TRIPOS>MOLECULE
ZINC40558538
   35    36     0     0     0
SMALL
USER_CHARGES

@<TRIPOS>ATOM
      1 C1         -0.0990    1.0833    0.1032 C.3       1 <0>        -0.1301
      2 C2          1.3831    1.4880    0.3198 C.3       1 <0>        -0.1200
      3 C3          2.0665    0.8342   -0.9070 C.3       1 <0>         0.1407
      4 H1          1.9529    1.4676   -1.7868 H         1 <0>         0.0876
      5 N1          1.3555   -0.4429   -1.0990 N.am      1 <0>        -0.6284
      6 C4          0.0142   -0.3293   -0.5079 C.3       1 <0>         0.1010
      7 C5          1.8526   -1.5338   -1.7150 C.2       1 <0>         0.7493
      8 O1          3.0158   -1.5553   -2.0684 O.2       1 <0>        -0.5458
      9 N2          1.0603   -2.6007   -1.9393 N.am      1 <0>        -0.5969
     10 C6         -0.3858   -2.6707   -1.6613 C.3       1 <0>         0.0540
     11 C7         -0.6837   -4.1810   -1.4883 C.3       1 <0>         0.0857
     12 H2         -1.7275   -4.4014   -1.7120 H         1 <0>         0.0737
     13 C8          0.2572   -4.8078   -2.5508 C.3       1 <0>        -0.0984
     14 C9          1.4938   -3.8855   -2.5077 C.3       1 <0>         0.0908
     15 H3          2.2633   -4.3295   -1.8761 H         1 <0>         0.0660
     16 C10         2.0286   -3.6752   -3.9009 C.2       1 <0>         0.4966
     17 O2          2.6055   -4.5825   -4.4758 O.co2     1 <0>        -0.7037
     18 O3          1.8843   -2.5978   -4.4531 O.co2     1 <0>        -0.6782
     19 O4         -0.3400   -4.6235   -0.1737 O.3       1 <0>        -0.5524
     20 C11         3.5261    0.5873   -0.6246 C.2       1 <0>         0.5166
     21 O5          3.8792   -0.4633   -0.1322 O.2       1 <0>        -0.5038
     22 N3          4.4390    1.5340   -0.9193 N.am      1 <0>        -0.8599
     23 H4         -0.6327    1.0509    1.0531 H         1 <0>         0.0836
     24 H5         -0.5877    1.7661   -0.5918 H         1 <0>         0.0795
     25 H6          1.4990    2.5716    0.3002 H         1 <0>         0.0885
     26 H7          1.7697    1.0720    1.2502 H         1 <0>         0.0809
     27 H8         -0.1127   -1.0814    0.2708 H         1 <0>         0.0660
     28 H9         -0.7436   -0.4609   -1.2802 H         1 <0>         0.0707
     29 H10        -0.6225   -2.1299   -0.7450 H         1 <0>         0.0858
     30 H11        -0.9532   -2.2656   -2.4992 H         1 <0>         0.0665
     31 H12         0.5243   -5.8281   -2.2755 H         1 <0>         0.0846
     32 H13        -0.2044   -4.7820   -3.5379 H         1 <0>         0.0852
     33 H14        -0.8361   -4.1852    0.5311 H         1 <0>         0.3699
     34 H15         4.1565    2.3743   -1.3131 H         1 <0>         0.3954
     35 H16         5.3785    1.3751   -0.7375 H         1 <0>         0.3993
@<TRIPOS>BOND
     1    1    6 1
     2    1    2 1
     3    1   23 1
     4    1   24 1
     5    2    3 1
     6    2   25 1
     7    2   26 1
     8    3    4 1
     9    3    5 1
    10    3   20 1
    11    5    6 1
    12    5    7 am
    13    6   27 1
    14    6   28 1
    15    7    8 2
    16    7    9 am
    17    9   14 1
    18    9   10 1
    19   10   11 1
    20   10   29 1
    21   10   30 1
    22   11   12 1
    23   11   13 1
    24   11   19 1
    25   13   14 1
    26   13   31 1
    27   13   32 1
    28   14   15 1
    29   14   16 1
    30   16   17 2
    31   16   18 1
    32   19   33 1
    33   20   21 2
    34   20   22 am
    35   22   34 1
    36   22   35 1
@<TRIPOS>MOLECULE
ZINC44511158
   37    37     0     0     0
SMALL
USER_CHARGES

@<TRIPOS>ATOM
      1 C1         -0.0188    1.5368    0.0105 C.3       1 <0>        -0.1573
      2 C2          1.4767    1.9366   -0.0016 C.3       1 <0>        -0.1504
      3 C3          2.1612    0.6496    0.5251 C.3       1 <0>         0.0794
      4 H1          2.1118    0.6064    1.6131 H         1 <0>         0.0749
      5 O1          1.3788   -0.4124   -0.0619 O.3       1 <0>        -0.3715
      6 C4          0.0021   -0.0041    0.0020 C.3       1 <0>         0.0458
      7 C5          3.6139    0.5790    0.0502 C.3       1 <0>        -0.1254
      8 C6          4.2995   -0.6328    0.6847 C.3       1 <0>         0.1409
      9 N1          5.6905   -0.7004    0.2300 N.am      1 <0>        -0.7481
     10 C7          6.4933   -1.6929    0.6623 C.2       1 <0>         0.7063
     11 O2          6.0631   -2.5322    1.4297 O.2       1 <0>        -0.5923
     12 N2          7.7730   -1.7551    0.2439 N.am      1 <0>        -0.7317
     13 C8          8.6456   -2.8340    0.7138 C.3       1 <0>         0.1201
     14 C9         10.0140   -2.6756    0.1026 C.2       1 <0>         0.4977
     15 O3         10.2382   -1.7524   -0.6513 O.2       1 <0>        -0.5614
     16 N3         10.9886   -3.5598    0.3938 N.am      1 <0>        -0.6909
     17 C10        12.3188   -3.4058   -0.2005 C.3       1 <0>         0.0503
     18 C11        13.2164   -4.5156    0.2829 C.2       1 <0>         0.4900
     19 O4         12.7850   -5.3571    1.0525 O.co2     1 <0>        -0.6902
     20 O5         14.3741   -4.5718   -0.0955 O.co2     1 <0>        -0.6875
     21 H2         -0.5053    1.9068    0.9130 H         1 <0>         0.0750
     22 H3         -0.5224    1.9164   -0.8785 H         1 <0>         0.0769
     23 H4          1.8093    2.1678   -1.0136 H         1 <0>         0.0791
     24 H5          1.6602    2.7768    0.6681 H         1 <0>         0.0811
     25 H6         -0.4558   -0.3860    0.9145 H         1 <0>         0.0588
     26 H7         -0.5361   -0.3772   -0.8693 H         1 <0>         0.0832
     27 H8          3.6370    0.4824   -1.0353 H         1 <0>         0.0800
     28 H9          4.1373    1.4884    0.3453 H         1 <0>         0.0842
     29 H10         4.2764   -0.5362    1.7702 H         1 <0>         0.0649
     30 H11         3.7762   -1.5422    0.3896 H         1 <0>         0.0731
     31 H12         6.0337   -0.0308   -0.3823 H         1 <0>         0.3966
     32 H13         8.1162   -1.0856   -0.3683 H         1 <0>         0.4070
     33 H14         8.7255   -2.7896    1.8000 H         1 <0>         0.0969
     34 H15         8.2253   -3.7956    0.4194 H         1 <0>         0.0971
     35 H16        10.8093   -4.2981    0.9967 H         1 <0>         0.4116
     36 H17        12.2389   -3.4501   -1.2866 H         1 <0>         0.0678
     37 H18        12.7391   -2.4442    0.0940 H         1 <0>         0.0677
@<TRIPOS>BOND
     1    1    6 1
     2    1    2 1
     3    1   21 1
     4    1   22 1
     5    2    3 1
     6    2   23 1
     7    2   24 1
     8    3    4 1
     9    3    5 1
    10    3    7 1
    11    5    6 1
    12    6   25 1
    13    6   26 1
    14    7    8 1
    15    7   27 1
    16    7   28 1
    17    8    9 1
    18    8   29 1
    19    8   30 1
    20    9   10 am
    21    9   31 1
    22   10   11 2
    23   10   12 am
    24   12   13 1
    25   12   32 1
    26   13   14 1
    27   13   33 1
    28   13   34 1
    29   14   15 2
    30   14   16 am
    31   16   17 1
    32   16   35 1
    33   17   18 1
    34   17   36 1
    35   17   37 1
    36   18   19 2
    37   18   20 1
@<TRIPOS>MOLECULE
ZINC62100811
   35    36     0     0     0
SMALL
USER_CHARGES

@<TRIPOS>ATOM
      1 C1          0.2242    2.6013    0.2820 C.3       1 <0>        -0.1573
      2 C2          1.6372    3.0745   -0.0787 C.3       1 <0>         0.1432
      3 N1          1.9691    2.6340   -1.4322 N.am      1 <0>        -0.6264
      4 C3          2.0750    1.2231   -1.7954 C.3       1 <0>         0.0198
      5 C4          0.7123    0.5427   -1.6291 C.3       1 <0>         0.0984
      6 N2          0.5248    0.1966   -0.2136 N.am      1 <0>        -0.7207
      7 C5          0.2923    1.1484    0.6946 C.2       1 <0>         0.5184
      8 O1          0.1348    0.8448    1.8582 O.2       1 <0>        -0.5679
      9 C6          2.1854    3.5655   -2.3819 C.2       1 <0>         0.7411
     10 O2          1.7537    4.6929   -2.2372 O.2       1 <0>        -0.5978
     11 N3          2.8803    3.2473   -3.4921 N.am      1 <0>        -0.6069
     12 C7          3.5506    4.2052   -4.3902 C.3       1 <0>         0.1032
     13 C8          4.6644    3.3836   -5.0860 C.3       1 <0>         0.0858
     14 H1          4.9310    3.8226   -6.0474 H         1 <0>         0.0781
     15 C9          3.9666    2.0109   -5.2758 C.3       1 <0>        -0.1026
     16 C10         3.1007    1.8870   -4.0045 C.3       1 <0>         0.0436
     17 H2          3.6209    1.2888   -3.2563 H         1 <0>         0.0820
     18 C11         1.7797    1.2482   -4.3476 C.2       1 <0>         0.4881
     19 O3          0.7998    1.9451   -4.5495 O.co2     1 <0>        -0.6650
     20 O4          1.6908    0.0346   -4.4235 O.co2     1 <0>        -0.6876
     21 O5          5.8134    3.2631   -4.2449 O.3       1 <0>        -0.5561
     22 H3         -0.1619    3.1985    1.1080 H         1 <0>         0.1035
     23 H4         -0.4288    2.7053   -0.5846 H         1 <0>         0.0971
     24 H5          1.6792    4.1626   -0.0303 H         1 <0>         0.1009
     25 H6          2.3528    2.6518    0.6266 H         1 <0>         0.0650
     26 H7          2.3979    1.1391   -2.8331 H         1 <0>         0.1805
     27 H8          2.8048    0.7360   -1.1488 H         1 <0>         0.0589
     28 H9         -0.0773    1.2240   -1.9462 H         1 <0>         0.0825
     29 H10         0.6802   -0.3635   -2.2340 H         1 <0>         0.1094
     30 H11         0.5699   -0.7317    0.0641 H         1 <0>         0.3963
     31 H12         2.8464    4.5903   -5.1276 H         1 <0>         0.0721
     32 H13         3.9852    5.0233   -3.8159 H         1 <0>         0.0706
     33 H14         3.3451    2.0147   -6.1712 H         1 <0>         0.0892
     34 H15         4.7018    1.2073   -5.3187 H         1 <0>         0.0863
     35 H16         6.2257    4.1081   -4.0188 H         1 <0>         0.3744
@<TRIPOS>BOND
     1    1    7 1
     2    1    2 1
     3    1   22 1
     4    1   23 1
     5    2    3 1
     6    2   24 1
     7    2   25 1
     8    3    4 1
     9    3    9 am
    10    4    5 1
    11    4   26 1
    12    4   27 1
    13    5    6 1
    14    5   28 1
    15    5   29 1
    16    6    7 am
    17    6   30 1
    18    7    8 2
    19    9   10 2
    20    9   11 am
    21   11   16 1
    22   11   12 1
    23   12   13 1
    24   12   31 1
    25   12   32 1
    26   13   14 1
    27   13   15 1
    28   13   21 1
    29   15   16 1
    30   15   33 1
    31   15   34 1
    32   16   17 1
    33   16   18 1
    34   18   19 2
    35   18   20 1
    36   21   35 1
@<TRIPOS>MOLECULE
ZINC09254495
   50    53     0     0     0
SMALL
USER_CHARGES
N-[3-[(2-methoxyphenyl)sulfamoyl]phenyl]-4-tetrazol-1-yl-benzamide
@<TRIPOS>ATOM
      1 C1          2.6767    5.2854    5.8857 C.3       1 <0>         0.0266
      2 O1          2.6661    5.6428    4.5021 O.3       1 <0>        -0.3155
      3 C2          3.8721    5.7460    3.8818 C.ar      1 <0>         0.1111
      4 C3          5.0391    5.5082    4.5889 C.ar      1 <0>        -0.1870
      5 C4          6.2645    5.6127    3.9567 C.ar      1 <0>        -0.0913
      6 C5          6.3294    5.9544    2.6186 C.ar      1 <0>        -0.1242
      7 C6          5.1692    6.1886    1.9046 C.ar      1 <0>        -0.1381
      8 C7          3.9366    6.0908    2.5335 C.ar      1 <0>         0.1238
      9 N1          2.7606    6.3323    1.8140 N.pl3     1 <0>        -1.0442
     10 S1          2.6547    5.8797    0.2246 S.o2      1 <0>         2.6927
     11 O2          3.7739    6.4537   -0.4366 O.2       1 <0>        -0.9440
     12 O3          1.3170    6.1340   -0.1818 O.2       1 <0>        -0.9476
     13 C8          2.8758    4.1327    0.1645 C.ar      1 <0>        -0.6548
     14 C9          4.1445    3.6016    0.0189 C.ar      1 <0>        -0.0266
     15 C10         4.3223    2.2313   -0.0282 C.ar      1 <0>        -0.1162
     16 C11         3.2331    1.3880    0.0745 C.ar      1 <0>        -0.0606
     17 C12         1.9574    1.9181    0.2159 C.ar      1 <0>         0.1266
     18 C13         1.7822    3.2953    0.2634 C.ar      1 <0>        -0.0417
     19 N2          0.8521    1.0673    0.3163 N.am      1 <0>        -0.6682
     20 C14         0.8416   -0.1051   -0.3486 C.2       1 <0>         0.5619
     21 O4          1.7489   -0.3804   -1.1097 O.2       1 <0>        -0.5063
     22 C15        -0.2717   -1.0551   -0.1525 C.ar      1 <0>        -0.1312
     23 C16        -1.3121   -0.7429    0.7260 C.ar      1 <0>        -0.0589
     24 C17        -2.3517   -1.6293    0.9022 C.ar      1 <0>        -0.1279
     25 C18        -2.3608   -2.8381    0.2156 C.ar      1 <0>         0.1635
     26 C19        -1.3245   -3.1544   -0.6554 C.ar      1 <0>        -0.1082
     27 C20        -0.2843   -2.2707   -0.8408 C.ar      1 <0>        -0.0296
     28 N3         -3.4162   -3.7386    0.4014 N.pl3     1 <0>        -0.3370
     29 C21        -4.4924   -3.5872    1.2044 C.2       1 <0>         0.2326
     30 N4         -5.2263   -4.6612    1.0761 N.2       1 <0>        -0.3243
     31 N5         -4.6882   -5.4813    0.2472 N.2       1 <0>        -0.0255
     32 N6         -3.5871   -4.9921   -0.2122 N.2       1 <0>        -0.0693
     33 H1          1.6528    5.2379    6.2565 H         1 <0>         0.1020
     34 H2          3.1521    4.3119    6.0058 H         1 <0>         0.0567
     35 H3          3.2332    6.0337    6.4500 H         1 <0>         0.0577
     36 H4          4.9919    5.2408    5.6342 H         1 <0>         0.1335
     37 H5          7.1733    5.4265    4.5097 H         1 <0>         0.1297
     38 H6          7.2887    6.0344    2.1290 H         1 <0>         0.1343
     39 H7          5.2225    6.4513    0.8584 H         1 <0>         0.1677
     40 H8          2.0076    6.7648    2.2463 H         1 <0>         0.4306
     41 H9          4.9981    4.2587   -0.0579 H         1 <0>         0.1441
     42 H10         5.3144    1.8197   -0.1413 H         1 <0>         0.1409
     43 H11         3.3732    0.3176    0.0417 H         1 <0>         0.1446
     44 H12         0.7918    3.7107    0.3771 H         1 <0>         0.1446
     45 H13         0.0913    1.3226    0.8611 H         1 <0>         0.4132
     46 H14        -1.3033    0.1938    1.2634 H         1 <0>         0.1434
     47 H15        -3.1582   -1.3870    1.5784 H         1 <0>         0.1460
     48 H16        -1.3349   -4.0944   -1.1872 H         1 <0>         0.1529
     49 H17         0.5208   -2.5175   -1.5171 H         1 <0>         0.1552
     50 H18        -4.7062   -2.7370    1.8352 H         1 <0>         0.2426
@<TRIPOS>BOND
     1    1    2 1
     2    1   33 1
     3    1   34 1
     4    1   35 1
     5    2    3 1
     6    3    8 ar
     7    3    4 ar
     8    4    5 ar
     9    4   36 1
    10    5    6 ar
    11    5   37 1
    12    6    7 ar
    13    6   38 1
    14    7    8 ar
    15    7   39 1
    16    8    9 1
    17    9   10 1
    18    9   40 1
    19   10   11 2
    20   10   12 2
    21   10   13 1
    22   13   18 ar
    23   13   14 ar
    24   14   15 ar
    25   14   41 1
    26   15   16 ar
    27   15   42 1
    28   16   17 ar
    29   16   43 1
    30   17   18 ar
    31   17   19 1
    32   18   44 1
    33   19   20 am
    34   19   45 1
    35   20   21 2
    36   20   22 1
    37   22   27 ar
    38   22   23 ar
    39   23   24 ar
    40   23   46 1
    41   24   25 ar
    42   24   47 1
    43   25   26 ar
    44   25   28 1
    45   26   27 ar
    46   26   48 1
    47   27   49 1
    48   28   32 1
    49   28   29 1
    50   29   30 2
    51   29   50 1
    52   30   31 1
    53   31   32 2
@<TRIPOS>MOLECULE
ZINC12606380
   55    58     0     0     0
SMALL
USER_CHARGES
N'-(3-benzo[1,3]dioxol-5-ylpropanoyl)-3-morpholinosulfonyl-benzohydrazide
@<TRIPOS>ATOM
      1 C1         -9.6427   -3.3162    2.6066 C.ar      1 <0>        -0.1387
      2 C2         -8.4616   -2.6030    2.5979 C.ar      1 <0>        -0.0309
      3 C3         -7.8517   -2.2544    3.8038 C.ar      1 <0>        -0.1476
      4 C4         -8.4474   -2.6213    5.0118 C.ar      1 <0>         0.0433
      5 C5         -9.6309   -3.3296    5.0065 C.ar      1 <0>        -0.6862
      6 C6        -10.2278   -3.6766    3.8073 C.ar      1 <0>         0.0086
      7 S1        -10.3848   -3.7931    6.5302 S.o2      1 <0>         2.6911
      8 O1        -11.2020   -4.9219    6.2521 O.2       1 <0>        -0.9455
      9 O2         -9.3495   -3.8232    7.5030 O.2       1 <0>        -0.9433
     10 N1        -11.4067   -2.5645    6.9645 N.pl3     1 <0>        -0.9999
     11 C7        -10.9374   -1.4492    7.8019 C.3       1 <0>         0.0839
     12 C8        -11.3361   -0.1333    7.1146 C.3       1 <0>         0.0465
     13 O3        -12.7352   -0.1621    6.8223 O.3       1 <0>        -0.3739
     14 C9        -13.1212   -1.1918    5.9088 C.3       1 <0>         0.0464
     15 C10       -12.8125   -2.5590    6.5296 C.3       1 <0>         0.0845
     16 C11        -6.5834   -1.4947    3.8020 C.2       1 <0>         0.5627
     17 O4         -6.0570   -1.1882    4.8538 O.2       1 <0>        -0.5259
     18 N2         -6.0108   -1.1421    2.6339 N.am      1 <0>        -0.5200
     19 N3         -4.8089   -0.4222    2.6322 N.am      1 <0>        -0.5224
     20 C12        -4.2363   -0.0695    1.4642 C.2       1 <0>         0.5167
     21 O5         -4.7615   -0.3754    0.4146 O.2       1 <0>        -0.5361
     22 C13        -2.9435    0.7049    1.4623 C.3       1 <0>        -0.1264
     23 C14        -2.5128    0.9748    0.0192 C.3       1 <0>        -0.0592
     24 C15        -1.2200    1.7492    0.0173 C.ar      1 <0>        -0.0771
     25 C16        -0.0126    1.0758    0.0080 C.ar      1 <0>        -0.1032
     26 C17         1.1760    1.7817    0.0004 C.ar      1 <0>        -0.0972
     27 C18         1.1596    3.1671    0.0076 C.ar      1 <0>         0.0302
     28 C19        -0.0566    3.8454    0.0224 C.ar      1 <0>         0.0341
     29 C20        -1.2438    3.1313    0.0307 C.ar      1 <0>        -0.0956
     30 O6          0.1924    5.1875    0.0265 O.3       1 <0>        -0.3088
     31 C21         1.5612    5.3258   -0.3982 C.3       1 <0>         0.2130
     32 O7          2.1706    4.0842    0.0023 O.3       1 <0>        -0.3088
     33 H1        -10.1138   -3.5898    1.6741 H         1 <0>         0.1465
     34 H2         -8.0081   -2.3183    1.6600 H         1 <0>         0.1375
     35 H3         -7.9824   -2.3513    5.9485 H         1 <0>         0.1561
     36 H4        -11.1547   -4.2310    3.8086 H         1 <0>         0.1488
     37 H5        -11.4023   -1.5081    8.7860 H         1 <0>         0.0890
     38 H6         -9.8533   -1.4976    7.9039 H         1 <0>         0.1016
     39 H7        -10.7730   -0.0181    6.1885 H         1 <0>         0.0564
     40 H8        -11.1200    0.7037    7.7786 H         1 <0>         0.1097
     41 H9        -12.5645   -1.0805    4.9783 H         1 <0>         0.0560
     42 H10       -14.1895   -1.1169    5.7060 H         1 <0>         0.1094
     43 H11       -12.9706   -3.3428    5.7888 H         1 <0>         0.1003
     44 H12       -13.4629   -2.7285    7.3877 H         1 <0>         0.0883
     45 H13        -6.4308   -1.3867    1.7945 H         1 <0>         0.4316
     46 H14        -4.3889   -0.1775    3.4716 H         1 <0>         0.4350
     47 H15        -2.1721    0.1253    1.9693 H         1 <0>         0.1062
     48 H16        -3.0867    1.6523    1.9820 H         1 <0>         0.1053
     49 H17        -3.2842    1.5544   -0.4878 H         1 <0>         0.0864
     50 H18        -2.3696    0.0274   -0.5005 H         1 <0>         0.0887
     51 H19         0.0021   -0.0041    0.0020 H         1 <0>         0.1399
     52 H20         2.1177    1.2531   -0.0107 H         1 <0>         0.1373
     53 H21        -2.1885    3.6548    0.0421 H         1 <0>         0.1363
     54 H22         1.6162    5.4481   -1.4799 H         1 <0>         0.0860
     55 H23         2.0362    6.1663    0.1079 H         1 <0>         0.1334
@<TRIPOS>BOND
     1    1    6 ar
     2    1    2 ar
     3    1   33 1
     4    2    3 ar
     5    2   34 1
     6    3    4 ar
     7    3   16 1
     8    4    5 ar
     9    4   35 1
    10    5    6 ar
    11    5    7 1
    12    6   36 1
    13    7    8 2
    14    7    9 2
    15    7   10 1
    16   10   15 1
    17   10   11 1
    18   11   12 1
    19   11   37 1
    20   11   38 1
    21   12   13 1
    22   12   39 1
    23   12   40 1
    24   13   14 1
    25   14   15 1
    26   14   41 1
    27   14   42 1
    28   15   43 1
    29   15   44 1
    30   16   17 2
    31   16   18 am
    32   18   19 1
    33   18   45 1
    34   19   20 am
    35   19   46 1
    36   20   21 2
    37   20   22 1
    38   22   23 1
    39   22   47 1
    40   22   48 1
    41   23   24 1
    42   23   49 1
    43   23   50 1
    44   24   29 ar
    45   24   25 ar
    46   25   26 ar
    47   25   51 1
    48   26   27 ar
    49   26   52 1
    50   27   32 1
    51   27   28 ar
    52   28   29 ar
    53   28   30 1
    54   29   53 1
    55   30   31 1
    56   31   32 1
    57   31   54 1
    58   31   55 1
@<TRIPOS>MOLECULE
ZINC21919278
   71    73     0     0     0
SMALL
USER_CHARGES
(6S)-N'-isopentyl-6-methyl-N-(2-morpholinoethyl)-8-oxo-7-propyl-5H-imidazo[1,5-d]pyrazine-1,6-dicarboxamide
@<TRIPOS>ATOM
      1 C1         -1.1071    2.6095    4.5990 C.3       1 <0>        -0.1501
      2 C2         -0.5839    2.6377    3.1615 C.3       1 <0>        -0.1406
      3 C3         -1.6961    3.1105    2.2232 C.3       1 <0>         0.1036
      4 N1         -1.1951    3.1375    0.8468 N.am      1 <0>        -0.6133
      5 C4         -0.6198    4.2701    0.3807 C.2       1 <0>         0.5789
      6 O1         -0.3229    5.1910    1.1174 O.2       1 <0>        -0.4448
      7 C5         -0.3741    4.3246   -1.0696 C.2       1 <0>        -0.0475
      8 C6          0.3340    5.2010   -1.8496 C.2       1 <0>         0.0546
      9 N2          0.2462    4.7536   -3.1194 N.2       1 <0>        -0.4734
     10 C7         -0.4760    3.6607   -3.1511 C.2       1 <0>         0.2392
     11 N3         -0.8870    3.3621   -1.9176 N.pl3     1 <0>        -0.4423
     12 C8         -1.7245    2.2691   -1.4215 C.3       1 <0>         0.0974
     13 C9         -1.3296    1.9443    0.0189 C.3       1 <0>         0.1477
     14 C10        -2.3979    1.0362    0.6312 C.3       1 <0>        -0.1488
     15 C11        -0.0144    1.2086    0.0087 C.2       1 <0>         0.5046
     16 O2          0.0021   -0.0041    0.0020 O.2       1 <0>        -0.5281
     17 N4          1.1435    1.8983    0.0013 N.am      1 <0>        -0.7282
     18 C12         2.4220    1.1832   -0.0147 C.3       1 <0>         0.1187
     19 C13         3.5713    2.1931   -0.0203 C.3       1 <0>        -0.1277
     20 C14         4.9065    1.4462   -0.0370 C.3       1 <0>        -0.0903
     21 C15         6.0519    2.4521   -0.1683 C.3       1 <0>        -0.1493
     22 C16         5.0664    0.6582    1.2646 C.3       1 <0>        -0.1540
     23 C17         1.0553    6.4064   -1.3881 C.2       1 <0>         0.5875
     24 O3          1.0558    6.7001   -0.2086 O.2       1 <0>        -0.4968
     25 N5          1.7123    7.1795   -2.2752 N.am      1 <0>        -0.7280
     26 C18         2.4270    8.3739   -1.8180 C.3       1 <0>         0.1266
     27 C19         3.0815    9.0662   -3.0152 C.3       1 <0>         0.0448
     28 N6          3.7981   10.2637   -2.5567 N.3       1 <0>        -0.5328
     29 C20         2.8613   11.2749   -2.0455 C.3       1 <0>         0.0104
     30 C21         3.6518   12.4781   -1.5246 C.3       1 <0>         0.0610
     31 O4          4.4799   12.9882   -2.5732 O.3       1 <0>        -0.3850
     32 C22         5.4050   12.0299   -3.0940 C.3       1 <0>         0.0610
     33 C23         4.6323   10.8221   -3.6308 C.3       1 <0>         0.0178
     34 H1         -0.3075    2.2696    5.2736 H         1 <0>         0.0593
     35 H2         -1.9608    1.9189    4.6650 H         1 <0>         0.0561
     36 H3         -1.4292    3.6197    4.8918 H         1 <0>         0.0595
     37 H4          0.2698    3.3283    3.0955 H         1 <0>         0.0706
     38 H5         -0.2618    1.6275    2.8686 H         1 <0>         0.0604
     39 H6         -2.5498    2.4199    2.2892 H         1 <0>         0.0930
     40 H7         -2.0182    4.1207    2.5161 H         1 <0>         0.0914
     41 H8         -0.7029    3.0892   -4.0390 H         1 <0>         0.2212
     42 H9         -2.7812    2.5730   -1.4541 H         1 <0>         0.1179
     43 H10        -1.5790    1.3801   -2.0527 H         1 <0>         0.1273
     44 H11        -2.5080    0.1321    0.0144 H         1 <0>         0.0936
     45 H12        -3.3573    1.5730    0.6696 H         1 <0>         0.0820
     46 H13        -2.0965    0.7507    1.6498 H         1 <0>         0.0851
     47 H14         1.1285    2.9982    0.0073 H         1 <0>         0.4156
     48 H15         2.4974    0.5469    0.8794 H         1 <0>         0.0729
     49 H16         2.4803    0.5564   -0.9168 H         1 <0>         0.0680
     50 H17         3.4959    2.8294   -0.9144 H         1 <0>         0.0676
     51 H18         3.5131    2.8199    0.8818 H         1 <0>         0.0705
     52 H19         4.9280    0.7525   -0.8904 H         1 <0>         0.0727
     53 H20         7.0119    1.9151   -0.1803 H         1 <0>         0.0581
     54 H21         6.0304    3.1457    0.6852 H         1 <0>         0.0564
     55 H22         5.9369    3.0186   -1.1042 H         1 <0>         0.0553
     56 H23         6.0264    0.1212    1.2525 H         1 <0>         0.0578
     57 H24         4.2429   -0.0649    1.3589 H         1 <0>         0.0568
     58 H25         5.0449    1.3518    2.1181 H         1 <0>         0.0563
     59 H26         1.7119    6.9137   -3.3426 H         1 <0>         0.4291
     60 H27         1.7178    9.0642   -1.3379 H         1 <0>         0.0679
     61 H28         3.2023    8.0827   -1.0940 H         1 <0>         0.0778
     62 H29         3.7907    8.3758   -3.4953 H         1 <0>         0.0852
     63 H30         2.3063    9.3575   -3.7392 H         1 <0>         0.0440
     64 H31         2.1913   11.5971   -2.8562 H         1 <0>         0.0455
     65 H32         2.2659   10.8430   -1.2276 H         1 <0>         0.0921
     66 H33         2.9530   13.2603   -1.1932 H         1 <0>         0.1009
     67 H34         4.2802   12.1652   -0.6778 H         1 <0>         0.0624
     68 H35         5.9868   12.4868   -3.9081 H         1 <0>         0.1007
     69 H36         6.0864   11.7055   -2.2937 H         1 <0>         0.0618
     70 H37         5.3410   10.0568   -3.9801 H         1 <0>         0.0891
     71 H38         3.9909   11.1369   -4.4672 H         1 <0>         0.0452
@<TRIPOS>BOND
     1    1    2 1
     2    1   34 1
     3    1   35 1
     4    1   36 1
     5    2    3 1
     6    2   37 1
     7    2   38 1
     8    3    4 1
     9    3   39 1
    10    3   40 1
    11    4   13 1
    12    4    5 am
    13    5    6 2
    14    5    7 1
    15    7   11 1
    16    7    8 2
    17    8    9 1
    18    8   23 1
    19    9   10 2
    20   10   11 1
    21   10   41 1
    22   11   12 1
    23   12   13 1
    24   12   42 1
    25   12   43 1
    26   13   14 1
    27   13   15 1
    28   14   44 1
    29   14   45 1
    30   14   46 1
    31   15   16 2
    32   15   17 am
    33   17   18 1
    34   17   47 1
    35   18   19 1
    36   18   48 1
    37   18   49 1
    38   19   20 1
    39   19   50 1
    40   19   51 1
    41   20   21 1
    42   20   22 1
    43   20   52 1
    44   21   53 1
    45   21   54 1
    46   21   55 1
    47   22   56 1
    48   22   57 1
    49   22   58 1
    50   23   24 2
    51   23   25 am
    52   25   26 1
    53   25   59 1
    54   26   27 1
    55   26   60 1
    56   26   61 1
    57   27   28 1
    58   27   62 1
    59   27   63 1
    60   28   33 1
    61   28   29 1
    62   29   30 1
    63   29   64 1
    64   29   65 1
    65   30   31 1
    66   30   66 1
    67   30   67 1
    68   31   32 1
    69   32   33 1
    70   32   68 1
    71   32   69 1
    72   33   70 1
    73   33   71 1
@<TRIPOS>MOLECULE
ZINC34900802
   56    58     0     0     0
SMALL
USER_CHARGES

@<TRIPOS>ATOM
      1 C1         -0.0167    1.3794    0.0096 C.ar      1 <0>        -0.0924
      2 C2          1.1684    2.0935    0.0021 C.ar      1 <0>        -0.1262
      3 C3          2.3774    1.4292   -0.0129 C.ar      1 <0>        -0.0592
      4 C4          2.4034    0.0337   -0.0206 C.ar      1 <0>        -0.1382
      5 C5          1.2043   -0.6806   -0.0130 C.ar      1 <0>        -0.0875
      6 C6          0.0021   -0.0041    0.0020 C.ar      1 <0>        -0.1277
      7 C7          3.6955   -0.6847   -0.0372 C.2       1 <0>         0.5589
      8 O1          4.7382   -0.0600   -0.0443 O.2       1 <0>        -0.5313
      9 N1          3.7172   -2.0323   -0.0446 N.am      1 <0>        -0.7284
     10 C8          4.9975   -2.7441   -0.0611 C.3       1 <0>         0.1214
     11 C9          4.7422   -4.2527   -0.0666 C.3       1 <0>        -0.1439
     12 C10         6.0793   -4.9961   -0.0839 C.3       1 <0>         0.1226
     13 N2          5.8349   -6.4406   -0.0891 N.am      1 <0>        -0.7299
     14 C11         6.8732   -7.2997   -0.1040 C.2       1 <0>         0.4944
     15 O2          8.0099   -6.8770   -0.1130 O.2       1 <0>        -0.4996
     16 C12         6.6218   -8.7856   -0.1094 C.3       1 <0>         0.1316
     17 H1          6.0527   -9.0683    0.7762 H         1 <0>         0.1038
     18 C13         5.8436   -9.1816   -1.3819 C.3       1 <0>        -0.1202
     19 C14         6.9647   -9.6690   -2.3373 C.3       1 <0>        -0.1288
     20 C15         7.9424  -10.3502   -1.3475 C.3       1 <0>         0.1111
     21 N3          7.9014   -9.5092   -0.1336 N.pl3     1 <0>        -0.9905
     22 S1          9.0954   -9.3966    1.0083 S.o2      1 <0>         2.7063
     23 O3         10.3074   -9.7691    0.3666 O.2       1 <0>        -0.9363
     24 O4          8.9278   -8.1393    1.6487 O.2       1 <0>        -0.9117
     25 C16         8.7705  -10.6289    2.2251 C.ar      1 <0>        -0.6451
     26 C17         7.9753  -10.3305    3.3157 C.ar      1 <0>        -0.0191
     27 C18         7.7203  -11.2972    4.2704 C.ar      1 <0>        -0.0752
     28 C19         8.2602  -12.5624    4.1341 C.ar      1 <0>         0.0020
     29 C20         9.0546  -12.8611    3.0430 C.ar      1 <0>        -0.0746
     30 C21         9.3061  -11.8956    2.0862 C.ar      1 <0>        -0.0181
     31 N4          7.9880  -13.5973    5.1569 N.pl3     1 <0>         0.0230
     32 O5          7.2935  -13.3360    6.1113 O.2       1 <0>        -0.1426
     33 O6          8.4601  -14.7039    5.0377 O.3       1 <0>        -0.1420
     34 H2         -0.9605    1.9042    0.0260 H         1 <0>         0.1289
     35 H3          1.1468    3.1732    0.0078 H         1 <0>         0.1317
     36 H4          3.3017    1.9878   -0.0191 H         1 <0>         0.1370
     37 H5          1.2176   -1.7605   -0.0193 H         1 <0>         0.1246
     38 H6         -0.9265   -0.5556    0.0079 H         1 <0>         0.1300
     39 H7          2.8851   -2.5308   -0.0391 H         1 <0>         0.4003
     40 H8          5.5559   -2.4669   -0.9552 H         1 <0>         0.0749
     41 H9          5.5735   -2.4764    0.8246 H         1 <0>         0.0753
     42 H10         4.1838   -4.5299    0.8275 H         1 <0>         0.0788
     43 H11         4.1662   -4.5205   -0.9524 H         1 <0>         0.0784
     44 H12         6.6377   -4.7189   -0.9779 H         1 <0>         0.0741
     45 H13         6.6554   -4.7284    0.8019 H         1 <0>         0.0764
     46 H14         4.9257   -6.7787   -0.0819 H         1 <0>         0.4005
     47 H15         5.1408   -9.9872   -1.1692 H         1 <0>         0.0924
     48 H16         5.3269   -8.3187   -1.8021 H         1 <0>         0.0893
     49 H17         6.5772  -10.3870   -3.0601 H         1 <0>         0.0931
     50 H18         7.4415   -8.8283   -2.8412 H         1 <0>         0.0818
     51 H19         7.6066  -11.3615   -1.1181 H         1 <0>         0.0754
     52 H20         8.9502  -10.3691   -1.7623 H         1 <0>         0.0919
     53 H21         7.5535   -9.3420    3.4222 H         1 <0>         0.1630
     54 H22         7.0996  -11.0639    5.1228 H         1 <0>         0.1652
     55 H23         9.4768  -13.8495    2.9368 H         1 <0>         0.1659
     56 H24         9.9237  -12.1301    1.2318 H         1 <0>         0.1649
@<TRIPOS>BOND
     1    1    6 ar
     2    1    2 ar
     3    1   34 1
     4    2    3 ar
     5    2   35 1
     6    3    4 ar
     7    3   36 1
     8    4    5 ar
     9    4    7 1
    10    5    6 ar
    11    5   37 1
    12    6   38 1
    13    7    8 2
    14    7    9 am
    15    9   10 1
    16    9   39 1
    17   10   11 1
    18   10   40 1
    19   10   41 1
    20   11   12 1
    21   11   42 1
    22   11   43 1
    23   12   13 1
    24   12   44 1
    25   12   45 1
    26   13   14 am
    27   13   46 1
    28   14   15 2
    29   14   16 1
    30   16   17 1
    31   16   21 1
    32   16   18 1
    33   18   19 1
    34   18   47 1
    35   18   48 1
    36   19   20 1
    37   19   49 1
    38   19   50 1
    39   20   21 1
    40   20   51 1
    41   20   52 1
    42   21   22 1
    43   22   23 2
    44   22   24 2
    45   22   25 1
    46   25   30 ar
    47   25   26 ar
    48   26   27 ar
    49   26   53 1
    50   27   28 ar
    51   27   54 1
    52   28   29 ar
    53   28   31 1
    54   29   30 ar
    55   29   55 1
    56   30   56 1
    57   31   32 2
    58   31   33 1
@<TRIPOS>MOLECULE
ZINC46657169
   59    61     0     0     0
SMALL
USER_CHARGES

@<TRIPOS>ATOM
      1 C1          1.2008    1.2359   -0.1727 C.3       1 <0>        -0.1165
      2 C2          0.5725   -0.1311   -0.0849 C.ar      1 <0>        -0.0662
      3 C3         -0.0333   -0.6856   -1.1977 C.ar      1 <0>        -0.1326
      4 C4         -0.6113   -1.9393   -1.1211 C.ar      1 <0>        -0.0980
      5 C5         -0.5854   -2.6419    0.0679 C.ar      1 <0>        -0.1317
      6 C6          0.0224   -2.0882    1.1867 C.ar      1 <0>         0.1611
      7 C7          0.6071   -0.8310    1.1050 C.ar      1 <0>        -0.1165
      8 C8          1.2732   -0.2287    2.3153 C.3       1 <0>        -0.1168
      9 N1          0.0504   -2.7974    2.3927 N.am      1 <0>        -0.6717
     10 C9         -0.0340   -4.1425    2.3855 C.2       1 <0>         0.6963
     11 O1         -0.0314   -4.7459    1.3305 O.2       1 <0>        -0.5041
     12 N2         -0.1214   -4.8184    3.5483 N.am      1 <0>        -0.6861
     13 C10        -0.2058   -6.1635    3.5411 C.2       1 <0>         0.5196
     14 O2         -0.2031   -6.7655    2.4887 O.2       1 <0>        -0.4361
     15 C11        -0.3034   -6.9193    4.8412 C.3       1 <0>         0.0508
     16 O3         -0.3813   -8.3207    4.5728 O.3       1 <0>        -0.3276
     17 C12        -0.4736   -9.1399    5.6321 C.2       1 <0>         0.4703
     18 O4         -0.4879   -8.6822    6.7503 O.2       1 <0>        -0.4973
     19 C13        -0.5596  -10.6304    5.4269 C.3       1 <0>        -0.0751
     20 C14        -1.8004  -10.9596    4.5938 C.3       1 <0>        -0.1270
     21 C15        -1.8656  -12.4719    4.3579 C.3       1 <0>         0.1181
     22 N3         -1.8122  -13.1558    5.6572 N.pl3     1 <0>        -0.9992
     23 C16        -0.7081  -12.8439    6.5749 C.3       1 <0>         0.1168
     24 C17        -0.6558  -11.3275    6.7859 C.3       1 <0>        -0.1179
     25 S1         -2.9747  -14.2571    6.0794 S.o2      1 <0>         2.6963
     26 O5         -2.9900  -14.3072    7.4994 O.2       1 <0>        -0.9462
     27 O6         -4.1305  -13.9404    5.3158 O.2       1 <0>        -0.9480
     28 C18        -2.4223  -15.8359    5.5256 C.ar      1 <0>        -0.7376
     29 C19        -2.7450  -16.2866    4.2545 C.ar      1 <0>         0.0248
     30 C20        -2.2888  -17.5352    3.8615 C.ar      1 <0>        -0.1916
     31 C21        -1.5328  -18.2843    4.7435 C.ar      1 <0>         0.1541
     32 N4         -1.2455  -17.8239    5.9452 N.ar      1 <0>        -0.4943
     33 C22        -1.6573  -16.6383    6.3504 C.ar      1 <0>         0.2003
     34 H1          2.2444    1.1375   -0.4715 H         1 <0>         0.0721
     35 H2          0.6665    1.8347   -0.9103 H         1 <0>         0.0687
     36 H3          1.1459    1.7242    0.8003 H         1 <0>         0.0689
     37 H4         -0.0552   -0.1381   -2.1283 H         1 <0>         0.1239
     38 H5         -1.0839   -2.3695   -1.9918 H         1 <0>         0.1269
     39 H6         -1.0376   -3.6209    0.1272 H         1 <0>         0.1459
     40 H7          0.5418    0.3447    2.8849 H         1 <0>         0.0719
     41 H8          1.6781   -1.0243    2.9407 H         1 <0>         0.0609
     42 H9          2.0814    0.4291    1.9956 H         1 <0>         0.0758
     43 H10         0.1305   -2.3209    3.2338 H         1 <0>         0.4097
     44 H11        -0.1235   -4.3368    4.3902 H         1 <0>         0.4138
     45 H12         0.5786   -6.7140    5.4479 H         1 <0>         0.1084
     46 H13        -1.1966   -6.6023    5.3796 H         1 <0>         0.1087
     47 H14         0.3315  -10.9768    4.9034 H         1 <0>         0.1179
     48 H15        -2.6937  -10.6358    5.1280 H         1 <0>         0.0790
     49 H16        -1.7423  -10.4441    3.6352 H         1 <0>         0.0977
     50 H17        -2.7974  -12.7227    3.8509 H         1 <0>         0.1028
     51 H18        -1.0190  -12.7831    3.7460 H         1 <0>         0.0792
     52 H19        -0.8760  -13.3402    7.5307 H         1 <0>         0.1042
     53 H20         0.2330  -13.1855    6.1438 H         1 <0>         0.0777
     54 H21         0.2170  -11.0737    7.3875 H         1 <0>         0.0913
     55 H22        -1.5598  -11.0002    7.2994 H         1 <0>         0.0831
     56 H23        -3.3380  -15.6793    3.5866 H         1 <0>         0.1525
     57 H24        -2.5214  -17.9181    2.8788 H         1 <0>         0.1488
     58 H25        -1.1735  -19.2581    4.4451 H         1 <0>         0.1672
     59 H26        -1.3977  -16.2926    7.3401 H         1 <0>         0.1725
@<TRIPOS>BOND
     1    1    2 1
     2    1   34 1
     3    1   35 1
     4    1   36 1
     5    2    7 ar
     6    2    3 ar
     7    3    4 ar
     8    3   37 1
     9    4    5 ar
    10    4   38 1
    11    5    6 ar
    12    5   39 1
    13    6    7 ar
    14    6    9 1
    15    7    8 1
    16    8   40 1
    17    8   41 1
    18    8   42 1
    19    9   10 am
    20    9   43 1
    21   10   11 2
    22   10   12 am
    23   12   13 am
    24   12   44 1
    25   13   14 2
    26   13   15 1
    27   15   16 1
    28   15   45 1
    29   15   46 1
    30   16   17 1
    31   17   18 2
    32   17   19 1
    33   19   24 1
    34   19   20 1
    35   19   47 1
    36   20   21 1
    37   20   48 1
    38   20   49 1
    39   21   22 1
    40   21   50 1
    41   21   51 1
    42   22   23 1
    43   22   25 1
    44   23   24 1
    45   23   52 1
    46   23   53 1
    47   24   54 1
    48   24   55 1
    49   25   26 2
    50   25   27 2
    51   25   28 1
    52   28   33 ar
    53   28   29 ar
    54   29   30 ar
    55   29   56 1
    56   30   31 ar
    57   30   57 1
    58   31   32 ar
    59   31   58 1
    60   32   33 ar
    61   33   59 1
@<TRIPOS>MOLECULE
ZINC11948970
   35    35     0     0     0
SMALL
USER_CHARGES
4-oxo-4-[[(2R,3S,4R,5S,6R)-2,4,5-trihydroxy-6-(hydroxymethyl)tetrahydropyran-3-yl]amino]butanoic acid
@<TRIPOS>ATOM
      1 C1          0.8396    3.8322    4.1236 C.3       1 <0>        -0.1146
      2 C2          1.2685    5.2705    4.4206 C.3       1 <0>        -0.1391
      3 C3          0.5446    5.7679    5.6452 C.2       1 <0>         0.4604
      4 O1         -0.2344    5.0460    6.2213 O.co2     1 <0>        -0.6460
      5 C4          1.5636    3.3349    2.8990 C.2       1 <0>         0.5199
      6 O2          2.3455    4.0595    2.3207 O.2       1 <0>        -0.5250
      7 N1          1.3421    2.0848    2.4464 N.am      1 <0>        -0.7168
      8 C5          2.0458    1.6014    1.2560 C.3       1 <0>         0.1353
      9 H1          3.0505    2.0232    1.2292 H         1 <0>         0.1147
     10 C6          2.1334    0.0727    1.2986 C.3       1 <0>         0.1140
     11 H2          2.7004   -0.2855    0.4394 H         1 <0>         0.0791
     12 C7          0.7175   -0.5102    1.2573 C.3       1 <0>         0.0419
     13 H3          0.1670   -0.1932    2.1431 H         1 <0>         0.0806
     14 C8          0.0021   -0.0041    0.0020 C.3       1 <0>         0.0728
     15 H4          0.5303   -0.3556   -0.8843 H         1 <0>         0.0769
     16 O3         -0.0173    1.4248    0.0099 O.3       1 <0>        -0.3851
     17 C9          1.2791    2.0260    0.0007 C.3       1 <0>         0.2583
     18 H5          1.8242    1.7010   -0.8855 H         1 <0>         0.0591
     19 O4          1.1446    3.4485   -0.0172 O.3       1 <0>        -0.5094
     20 C10        -1.4332   -0.5337   -0.0158 C.3       1 <0>         0.0811
     21 O5         -2.0645   -0.1576   -1.2414 O.3       1 <0>        -0.5614
     22 O6          0.7879   -1.9371    1.2242 O.3       1 <0>        -0.5563
     23 O7          2.7834   -0.3354    2.5040 O.3       1 <0>        -0.5431
     24 H6         -0.2356    3.8027    3.9471 H         1 <0>         0.0894
     25 H7          1.0857    3.1967    4.9743 H         1 <0>         0.0893
     26 H8          2.3437    5.3000    4.5971 H         1 <0>         0.0694
     27 H9          1.0224    5.9060    3.5699 H         1 <0>         0.0706
     28 H10         0.7167    1.5053    2.9089 H         1 <0>         0.3970
     29 H11         0.6670    3.7888   -0.7860 H         1 <0>         0.3830
     30 H12        -1.4205   -1.6204    0.0677 H         1 <0>         0.0616
     31 H13        -1.9869   -0.1113    0.8227 H         1 <0>         0.0616
     32 H14        -2.9793   -0.4606   -1.3218 H         1 <0>         0.3830
     33 H15        -0.0747   -2.3729    1.1927 H         1 <0>         0.3837
     34 H16         2.8672   -1.2939    2.6006 H         1 <0>         0.3877
     35 O8          0.7652    7.0128    6.0959 O.co2     1 <0>        -0.7738
@<TRIPOS>BOND
     1    1    2 1
     2    1    5 1
     3    1   24 1
     4    1   25 1
     5    2    3 1
     6    2   26 1
     7    2   27 1
     8    3    4 2
     9    3   35 1
    10    5    6 2
    11    5    7 am
    12    7    8 1
    13    7   28 1
    14    8    9 1
    15    8   17 1
    16    8   10 1
    17   10   11 1
    18   10   12 1
    19   10   23 1
    20   12   13 1
    21   12   14 1
    22   12   22 1
    23   14   15 1
    24   14   16 1
    25   14   20 1
    26   16   17 1
    27   17   18 1
    28   17   19 1
    29   19   29 1
    30   20   21 1
    31   20   30 1
    32   20   31 1
    33   21   32 1
    34   22   33 1
    35   23   34 1
@<TRIPOS>MOLECULE
ZINC35384331
   29    29     0     0     0
SMALL
USER_CHARGES

@<TRIPOS>ATOM
      1 C1         -0.0189    1.5406    0.0105 C.3       1 <0>        -0.1228
      2 C2          1.4904    1.8764   -0.0021 C.3       1 <0>        -0.1545
      3 C3          2.1475    0.6541    0.6002 C.2       1 <0>         0.5231
      4 O1          3.2823    0.6144    1.0264 O.2       1 <0>        -0.5319
      5 N1          1.2905   -0.3814    0.5948 N.am      1 <0>        -0.7088
      6 C4          0.0021   -0.0041    0.0020 C.3       1 <0>         0.1153
      7 H1         -0.0665   -0.3766   -1.0200 H         1 <0>         0.1102
      8 C5         -1.1327   -0.5456    0.8327 C.2       1 <0>         0.5055
      9 O2         -0.9262   -0.9300    1.9643 O.2       1 <0>        -0.5300
     10 N2         -2.3771   -0.6027    0.3182 N.am      1 <0>        -0.7073
     11 C6         -3.4802   -1.1291    1.1257 C.3       1 <0>         0.0990
     12 C7         -4.7555   -1.0843    0.3241 C.2       1 <0>         0.4973
     13 O3         -4.7441   -0.6550   -0.8101 O.2       1 <0>        -0.5600
     14 N3         -5.9088   -1.5214    0.8676 N.am      1 <0>        -0.6896
     15 C8         -7.1486   -1.4779    0.0882 C.3       1 <0>         0.0498
     16 C9         -8.2834   -2.0194    0.9190 C.2       1 <0>         0.4897
     17 O4         -8.0758   -2.4059    2.0565 O.co2     1 <0>        -0.6904
     18 O5         -9.4090   -2.0711    0.4535 O.co2     1 <0>        -0.6861
     19 H2         -0.4952    1.9193    0.9148 H         1 <0>         0.0899
     20 H3         -0.5124    1.9289   -0.8804 H         1 <0>         0.1043
     21 H4          1.8381    2.0322   -1.0234 H         1 <0>         0.1099
     22 H5          1.6904    2.7569    0.6085 H         1 <0>         0.1071
     23 H6          1.4972   -1.2647    0.9385 H         1 <0>         0.4164
     24 H7         -2.5422   -0.2952   -0.5869 H         1 <0>         0.4139
     25 H8         -3.2644   -2.1596    1.4079 H         1 <0>         0.1004
     26 H9         -3.5944   -0.5226    2.0242 H         1 <0>         0.1005
     27 H10        -5.9180   -1.8648    1.7747 H         1 <0>         0.4117
     28 H11        -7.3644   -0.4474   -0.1939 H         1 <0>         0.0687
     29 H12        -7.0344   -2.0843   -0.8102 H         1 <0>         0.0686
@<TRIPOS>BOND
     1    1    6 1
     2    1    2 1
     3    1   19 1
     4    1   20 1
     5    2    3 1
     6    2   21 1
     7    2   22 1
     8    3    4 2
     9    3    5 am
    10    5    6 1
    11    5   23 1
    12    6    7 1
    13    6    8 1
    14    8    9 2
    15    8   10 am
    16   10   11 1
    17   10   24 1
    18   11   12 1
    19   11   25 1
    20   11   26 1
    21   12   13 2
    22   12   14 am
    23   14   15 1
    24   14   27 1
    25   15   16 1
    26   15   28 1
    27   15   29 1
    28   16   17 2
    29   16   18 1
@<TRIPOS>MOLECULE
ZINC40532919
   33    33     0     0     0
SMALL
USER_CHARGES

@<TRIPOS>ATOM
      1 C1         -0.0188    1.5335    0.0105 C.3       1 <0>        -0.1320
      2 C2          1.4289    2.0809   -0.0004 C.3       1 <0>        -0.5769
      3 S1          2.3583    0.7478   -0.8615 S.o2      1 <0>         2.3697
      4 O1          2.7805    1.2249   -2.1317 O.2       1 <0>        -0.9426
      5 O2          3.3165    0.2000    0.0335 O.2       1 <0>        -0.9351
      6 C3          0.9956   -0.4689   -1.1008 C.3       1 <0>        -0.5835
      7 C4          0.0021   -0.0041    0.0020 C.3       1 <0>         0.1631
      8 H1          0.3313   -0.3731    0.9734 H         1 <0>         0.1116
      9 N1         -1.3388   -0.5155   -0.2925 N.am      1 <0>        -0.7390
     10 C5         -1.6973   -1.7460    0.1243 C.2       1 <0>         0.7184
     11 O3         -0.9078   -2.4317    0.7447 O.2       1 <0>        -0.5887
     12 N2         -2.9308   -2.2165   -0.1467 N.am      1 <0>        -0.6995
     13 C6         -3.3205   -3.5541    0.3063 C.3       1 <0>         0.1105
     14 H2         -2.8551   -3.7613    1.2700 H         1 <0>         0.0903
     15 C7         -4.8423   -3.6207    0.4500 C.3       1 <0>        -0.1340
     16 C8         -5.2849   -2.6844    1.5448 C.2       1 <0>         0.5123
     17 O4         -4.4640   -2.0284    2.1504 O.2       1 <0>        -0.5329
     18 N3         -6.5930   -2.5760    1.8508 N.am      1 <0>        -0.8638
     19 C9         -2.8658   -4.5781   -0.7016 C.2       1 <0>         0.4899
     20 O5         -2.2714   -4.2234   -1.7052 O.co2     1 <0>        -0.6802
     21 O6         -3.0924   -5.7612   -0.5133 O.co2     1 <0>        -0.6982
     22 H3         -0.5313    1.8835    0.9065 H         1 <0>         0.1010
     23 H4         -0.5483    1.8930   -0.8718 H         1 <0>         0.0904
     24 H5          1.4848    3.0146   -0.5601 H         1 <0>         0.1414
     25 H6          1.7988    2.2155    1.0160 H         1 <0>         0.1401
     26 H7          0.5543   -0.3764   -2.0932 H         1 <0>         0.1420
     27 H8          1.3394   -1.4869   -0.9179 H         1 <0>         0.1498
     28 H9         -1.9686    0.0316   -0.7874 H         1 <0>         0.3935
     29 H10        -3.5607   -1.6695   -0.6416 H         1 <0>         0.3826
     30 H11        -5.3092   -3.3271   -0.4901 H         1 <0>         0.0916
     31 H12        -5.1393   -4.6391    0.7008 H         1 <0>         0.1144
     32 H13        -7.2495   -3.1007    1.3665 H         1 <0>         0.3994
     33 H14        -6.8779   -1.9733    2.5554 H         1 <0>         0.3943
@<TRIPOS>BOND
     1    1    7 1
     2    1    2 1
     3    1   22 1
     4    1   23 1
     5    2    3 1
     6    2   24 1
     7    2   25 1
     8    3    4 2
     9    3    5 2
    10    3    6 1
    11    6    7 1
    12    6   26 1
    13    6   27 1
    14    7    8 1
    15    7    9 1
    16    9   10 am
    17    9   28 1
    18   10   11 2
    19   10   12 am
    20   12   13 1
    21   12   29 1
    22   13   14 1
    23   13   15 1
    24   13   19 1
    25   15   16 1
    26   15   30 1
    27   15   31 1
    28   16   17 2
    29   16   18 am
    30   18   32 1
    31   18   33 1
    32   19   20 2
    33   19   21 1
@<TRIPOS>MOLECULE
ZINC42397401
   34    34     0     0     0
SMALL
USER_CHARGES

@<TRIPOS>ATOM
      1 C1         -0.0178    1.4608    0.0101 C.3       1 <0>         0.0911
      2 N1          0.0021   -0.0041    0.0020 N.am      1 <0>        -0.7395
      3 C2          0.6044   -0.6754    1.0035 C.2       1 <0>         0.5103
      4 O1          1.1299   -0.0668    1.9115 O.2       1 <0>        -0.5188
      5 C3          0.6248   -2.1822    0.9953 C.3       1 <0>         0.1404
      6 H1         -0.3407   -2.5641    0.6636 H         1 <0>         0.0937
      7 C4          1.7398   -2.6868    0.0551 C.3       1 <0>        -0.1187
      8 C5          2.9127   -2.9733    1.0295 C.3       1 <0>        -0.1299
      9 C6          2.1592   -3.4954    2.2783 C.3       1 <0>         0.1031
     10 N2          0.9253   -2.6856    2.3435 N.am      1 <0>        -0.6233
     11 C7          0.1969   -2.4457    3.4519 C.2       1 <0>         0.7302
     12 O2         -0.8045   -1.7595    3.3846 O.2       1 <0>        -0.5862
     13 N3          0.5787   -2.9666    4.6349 N.am      1 <0>        -0.7020
     14 C8         -0.2130   -2.7059    5.8397 C.3       1 <0>         0.0904
     15 H2         -0.6247   -1.6977    5.7928 H         1 <0>         0.0913
     16 C9          0.6805   -2.8350    7.0749 C.3       1 <0>         0.0865
     17 O3          1.1267   -4.1867    7.2009 O.3       1 <0>        -0.5517
     18 C10        -1.3383   -3.7044    5.9271 C.2       1 <0>         0.4999
     19 O4         -1.1999   -4.8215    5.4586 O.co2     1 <0>        -0.6793
     20 O5         -2.3872   -3.3952    6.4665 O.co2     1 <0>        -0.7035
     21 H3          1.0048    1.8381    0.0023 H         1 <0>         0.0552
     22 H4         -0.5450    1.8219   -0.8730 H         1 <0>         0.0719
     23 H5         -0.5280    1.8123    0.9069 H         1 <0>         0.0585
     24 H6         -0.4183   -0.4908   -0.7241 H         1 <0>         0.3994
     25 H7          1.4306   -3.5991   -0.4550 H         1 <0>         0.0896
     26 H8          2.0157   -1.9160   -0.6644 H         1 <0>         0.0828
     27 H9          3.5776   -3.7373    0.6267 H         1 <0>         0.0865
     28 H10         3.4625   -2.0603    1.2583 H         1 <0>         0.0769
     29 H11         1.9130   -4.5505    2.1592 H         1 <0>         0.0717
     30 H12         2.7604   -3.3441    3.1749 H         1 <0>         0.0729
     31 H13         1.3776   -3.5141    4.6886 H         1 <0>         0.3918
     32 H14         1.5425   -2.1761    6.9703 H         1 <0>         0.0382
     33 H15         0.1148   -2.5548    7.9635 H         1 <0>         0.0572
     34 H16         1.6992   -4.3424    7.9645 H         1 <0>         0.3635
@<TRIPOS>BOND
     1    1    2 1
     2    1   21 1
     3    1   22 1
     4    1   23 1
     5    2    3 am
     6    2   24 1
     7    3    4 2
     8    3    5 1
     9    5    6 1
    10    5   10 1
    11    5    7 1
    12    7    8 1
    13    7   25 1
    14    7   26 1
    15    8    9 1
    16    8   27 1
    17    8   28 1
    18    9   10 1
    19    9   29 1
    20    9   30 1
    21   10   11 am
    22   11   12 2
    23   11   13 am
    24   13   14 1
    25   13   31 1
    26   14   15 1
    27   14   16 1
    28   14   18 1
    29   16   17 1
    30   16   32 1
    31   16   33 1
    32   17   34 1
    33   18   19 2
    34   18   20 1
@<TRIPOS>MOLECULE
ZINC51040335
   26    26     0     0     0
SMALL
USER_CHARGES

@<TRIPOS>ATOM
      1 C1         -0.0167    1.3779    0.0096 C.ar      1 <0>        -0.0138
      2 C2          1.1692    2.0897    0.0021 C.ar      1 <0>        -0.1984
      3 C3          2.3812    1.4171   -0.0131 C.ar      1 <0>         0.2258
      4 C4          2.4001    0.0221   -0.0208 C.ar      1 <0>         0.1217
      5 C5          1.2068   -0.6833   -0.0132 C.ar      1 <0>        -0.0646
      6 C6          0.0021   -0.0041    0.0020 C.ar      1 <0>        -0.7049
      7 S1         -1.5132   -0.9032    0.0123 S.o2      1 <0>         2.7071
      8 O1         -1.2216   -2.1844    0.5534 O.2       1 <0>        -0.9771
      9 O2         -2.4924   -0.0424    0.5775 O.2       1 <0>        -0.9743
     10 N1         -1.9500   -1.1446   -1.5667 N.pl3     1 <0>        -1.2527
     11 N2          3.6209   -0.6635   -0.0366 N.pl3     1 <0>        -0.8843
     12 N3          3.5829    2.1356   -0.0212 N.pl3     1 <0>        -0.7057
     13 C7          3.5606    3.6004   -0.0136 C.3       1 <0>         0.0492
     14 C8          4.9735    4.1244   -0.0247 C.2       1 <0>         0.4904
     15 O3          5.9121    3.3464   -0.0377 O.co2     1 <0>        -0.6908
     16 O4          5.1780    5.3263   -0.0206 O.co2     1 <0>        -0.6862
     17 H1         -0.9600    1.9035    0.0260 H         1 <0>         0.1330
     18 H2          1.1509    3.1695    0.0078 H         1 <0>         0.1313
     19 H3          1.2178   -1.7632   -0.0195 H         1 <0>         0.1323
     20 H4         -2.4592   -1.9322   -1.8141 H         1 <0>         0.4155
     21 H5         -1.6967   -0.4982   -2.2443 H         1 <0>         0.4164
     22 H6          4.4550   -0.1685   -0.0422 H         1 <0>         0.3972
     23 H7          3.6324   -1.6334   -0.0419 H         1 <0>         0.3974
     24 H8          4.4302    1.6635   -0.0318 H         1 <0>         0.4067
     25 H9          3.0326    3.9603   -0.8966 H         1 <0>         0.0642
     26 H10         3.0500    3.9513    0.8832 H         1 <0>         0.0644
@<TRIPOS>BOND
     1    1    6 ar
     2    1    2 ar
     3    1   17 1
     4    2    3 ar
     5    2   18 1
     6    3    4 ar
     7    3   12 1
     8    4    5 ar
     9    4   11 1
    10    5    6 ar
    11    5   19 1
    12    6    7 1
    13    7    8 2
    14    7    9 2
    15    7   10 1
    16   10   20 1
    17   10   21 1
    18   11   22 1
    19   11   23 1
    20   12   13 1
    21   12   24 1
    22   13   14 1
    23   13   25 1
    24   13   26 1
    25   14   15 2
    26   14   16 1
@<TRIPOS>MOLECULE
ZINC23390760
   36    37     0     0     0
SMALL
USER_CHARGES
N-(3-acetylphenyl)benzene-1,3-disulfonamide
@<TRIPOS>ATOM
      1 C1         -7.7602    7.7479   -3.6848 C.3       1 <0>        -0.2026
      2 C2         -7.3055    6.3126   -3.6186 C.2       1 <0>         0.3952
      3 O1         -7.8245    5.5478   -2.8338 O.2       1 <0>        -0.4701
      4 C3         -6.2314    5.8392   -4.5066 C.ar      1 <0>        -0.1614
      5 C4         -5.6306    6.7191   -5.4131 C.ar      1 <0>        -0.1457
      6 C5         -4.6245    6.2721   -6.2436 C.ar      1 <0>        -0.1098
      7 C6         -4.2060    4.9553   -6.1849 C.ar      1 <0>        -0.1889
      8 C7         -4.7960    4.0717   -5.2883 C.ar      1 <0>         0.2125
      9 C8         -5.8115    4.5076   -4.4516 C.ar      1 <0>        -0.0939
     10 N1         -4.3692    2.7424   -5.2346 N.2       1 <0>        -1.0601
     11 S1         -2.7507    2.3917   -5.2353 S.o2      1 <0>         2.5826
     12 O2         -2.1744    3.1358   -6.3000 O.2       1 <0>        -1.0352
     13 O3         -2.6415    0.9777   -5.1477 O.2       1 <0>        -0.9892
     14 C9         -2.0761    3.0423   -3.7433 C.ar      1 <0>        -0.6726
     15 C10        -1.5873    4.3352   -3.7117 C.ar      1 <0>         0.0286
     16 C11        -1.0585    4.8457   -2.5412 C.ar      1 <0>        -0.1631
     17 C12        -1.0231    4.0653   -1.4005 C.ar      1 <0>         0.0008
     18 C13        -1.5070    2.7710   -1.4335 C.ar      1 <0>        -0.6878
     19 C14        -2.0359    2.2603   -2.6044 C.ar      1 <0>         0.0786
     20 S2         -1.4563    1.7742    0.0186 S.o2      1 <0>         2.6371
     21 O4         -2.4724    0.7917   -0.1276 O.2       1 <0>        -0.9469
     22 O5         -1.4135    2.6674    1.1230 O.2       1 <0>        -0.9914
     23 N2         -0.0111    0.9658    0.0074 N.pl3     1 <0>        -1.1613
     24 H1         -7.1776    8.2822   -4.4497 H         1 <0>         0.0850
     25 H2         -7.6069    8.2266   -2.7064 H         1 <0>         0.0877
     26 H3         -8.8280    7.7825   -3.9467 H         1 <0>         0.0883
     27 H4         -5.9549    7.7481   -5.4628 H         1 <0>         0.1161
     28 H5         -4.1619    6.9528   -6.9428 H         1 <0>         0.1117
     29 H6         -3.4178    4.6119   -6.8385 H         1 <0>         0.1467
     30 H7         -6.2739    3.8216   -3.7573 H         1 <0>         0.1243
     31 H8         -1.6190    4.9464   -4.6016 H         1 <0>         0.1420
     32 H9         -0.6770    5.8558   -2.5164 H         1 <0>         0.1348
     33 H10        -0.6140    4.4657   -0.4847 H         1 <0>         0.1393
     34 H11        -2.4181    1.2505   -2.6289 H         1 <0>         0.1527
     35 H12         0.0599    0.3294    0.9018 H         1 <0>         0.4095
     36 H13         0.8152    1.6919    0.0075 H         1 <0>         0.4064
@<TRIPOS>BOND
     1    1    2 1
     2    1   24 1
     3    1   25 1
     4    1   26 1
     5    2    3 2
     6    2    4 1
     7    4    9 ar
     8    4    5 ar
     9    5    6 ar
    10    5   27 1
    11    6    7 ar
    12    6   28 1
    13    7    8 ar
    14    7   29 1
    15    8    9 ar
    16    8   10 1
    17    9   30 1
    18   10   11 1
    19   11   12 2
    20   11   13 2
    21   11   14 1
    22   14   19 ar
    23   14   15 ar
    24   15   16 ar
    25   15   31 1
    26   16   17 ar
    27   16   32 1
    28   17   18 ar
    29   17   33 1
    30   18   19 ar
    31   18   20 1
    32   19   34 1
    33   20   21 2
    34   20   22 2
    35   20   23 1
    36   23   35 1
    37   23   36 1
@<TRIPOS>MOLECULE
ZINC40095489
   49    52     0     0     0
SMALL
USER_CHARGES

@<TRIPOS>ATOM
      1 C1          0.4555   -4.2635   -1.5571 C.3       1 <0>        -0.1707
      2 C2          1.3941   -4.3169   -2.7642 C.3       1 <0>         0.0756
      3 H1          0.8994   -4.7844   -3.6156 H         1 <0>         0.1125
      4 C3          1.8952   -2.9002   -3.1317 C.3       1 <0>        -0.1027
      5 C4          3.1958   -2.8174   -2.3558 C.ar      1 <0>        -0.1900
      6 C5          3.9986   -1.7569   -2.0168 C.ar      1 <0>        -0.0248
      7 C6          5.1628   -1.9747   -1.2722 C.ar      1 <0>        -0.1626
      8 C7          5.4956   -3.2754   -0.8809 C.ar      1 <0>        -0.0296
      9 C8          4.6864   -4.3303   -1.2289 C.ar      1 <0>        -0.1526
     10 C9          3.5259   -4.1155   -1.9751 C.ar      1 <0>         0.1157
     11 O1          2.6076   -5.0136   -2.4350 O.3       1 <0>        -0.3015
     12 C10         6.0329   -0.8410   -0.9029 C.2       1 <0>         0.5087
     13 O2          5.7834    0.2768   -1.3146 O.2       1 <0>        -0.4767
     14 C11         7.1979   -1.0615   -0.0402 C.2       1 <0>        -0.5023
     15 C12         8.4978   -0.9102   -0.3849 C.2       1 <0>         0.2624
     16 C13         9.3496   -1.2335    0.7788 C.2       1 <0>         0.5102
     17 O3         10.5639   -1.1924    0.7868 O.2       1 <0>        -0.5393
     18 N1          8.5818   -1.5798    1.8278 N.am      1 <0>        -0.6056
     19 C14         7.1783   -1.4953    1.4070 C.3       1 <0>         0.2625
     20 H2          6.7023   -2.4715    1.4992 H         1 <0>         0.0664
     21 C15         6.4438   -0.4788    2.2426 C.ar      1 <0>        -0.0389
     22 C16         6.8711    0.8362    2.2646 C.ar      1 <0>        -0.0503
     23 C17         6.1995    1.7711    3.0301 C.ar      1 <0>        -0.1143
     24 C18         5.0994    1.3934    3.7758 C.ar      1 <0>        -0.1485
     25 C19         4.6687    0.0750    3.7555 C.ar      1 <0>         0.0887
     26 C20         5.3409   -0.8602    2.9815 C.ar      1 <0>        -0.1315
     27 O4          3.5869   -0.2990    4.4880 O.3       1 <0>        -0.5049
     28 C21         9.0615   -1.9674    3.1567 C.3       1 <0>         0.1390
     29 C22         9.3597   -0.7112    3.9776 C.3       1 <0>         0.0563
     30 O5          8.1343   -0.0502    4.2991 O.3       1 <0>        -0.5481
     31 O6          8.9463   -0.5243   -1.6017 O.3       1 <0>        -0.6552
     32 H3          0.9729   -3.8046   -0.7145 H         1 <0>         0.0643
     33 H4         -0.4256   -3.6728   -1.8078 H         1 <0>         0.0732
     34 H5          0.1505   -5.2750   -1.2889 H         1 <0>         0.0661
     35 H6          2.0748   -2.8164   -4.2035 H         1 <0>         0.0885
     36 H7          1.1917   -2.1387   -2.7952 H         1 <0>         0.0901
     37 H8          3.7323   -0.7565   -2.3246 H         1 <0>         0.1308
     38 H9          6.3914   -3.4515   -0.3038 H         1 <0>         0.1428
     39 H10         4.9499   -5.3321   -0.9231 H         1 <0>         0.1281
     40 H11         7.7313    1.1333    1.6830 H         1 <0>         0.1118
     41 H12         6.5352    2.7975    3.0456 H         1 <0>         0.1144
     42 H13         4.5754    2.1239    4.3743 H         1 <0>         0.1139
     43 H14         5.0047   -1.8863    2.9603 H         1 <0>         0.1159
     44 H15         2.7467   -0.2246    4.0150 H         1 <0>         0.3803
     45 H16         8.2968   -2.5580    3.6611 H         1 <0>         0.0834
     46 H17         9.9708   -2.5601    3.0561 H         1 <0>         0.0873
     47 H18         9.8734   -0.9916    4.8972 H         1 <0>         0.0468
     48 H19         9.9933   -0.0401    3.3977 H         1 <0>         0.0477
     49 H20         8.2474    0.7566    4.8200 H         1 <0>         0.3666
@<TRIPOS>BOND
     1    1    2 1
     2    1   32 1
     3    1   33 1
     4    1   34 1
     5    2    3 1
     6    2   11 1
     7    2    4 1
     8    4    5 1
     9    4   35 1
    10    4   36 1
    11    5   10 ar
    12    5    6 ar
    13    6    7 ar
    14    6   37 1
    15    7    8 ar
    16    7   12 1
    17    8    9 ar
    18    8   38 1
    19    9   10 ar
    20    9   39 1
    21   10   11 1
    22   12   13 2
    23   12   14 1
    24   14   19 1
    25   14   15 2
    26   15   16 1
    27   15   31 1
    28   16   17 2
    29   16   18 am
    30   18   19 1
    31   18   28 1
    32   19   20 1
    33   19   21 1
    34   21   26 ar
    35   21   22 ar
    36   22   23 ar
    37   22   40 1
    38   23   24 ar
    39   23   41 1
    40   24   25 ar
    41   24   42 1
    42   25   26 ar
    43   25   27 1
    44   26   43 1
    45   27   44 1
    46   28   29 1
    47   28   45 1
    48   28   46 1
    49   29   30 1
    50   29   47 1
    51   29   48 1
    52   30   49 1
@<TRIPOS>MOLECULE
ZINC49591741
   28    29     0     0     0
SMALL
USER_CHARGES

@<TRIPOS>ATOM
      1 C1         -0.0166    1.3751    0.0096 C.2       1 <0>        -0.1045
      2 C2          1.3141    1.8039   -0.0008 C.2       1 <0>        -0.0879
      3 C3          2.1052    0.7043   -0.0143 C.2       1 <0>         0.0715
      4 N1          1.3203   -0.4007   -0.0127 N.pl3     1 <0>        -0.5133
      5 H1          1.6350   -1.3182   -0.0206 H         1 <0>         0.4326
      6 C4          0.0021   -0.0041    0.0020 C.2       1 <0>         0.0356
      7 C5         -1.1684   -0.8867    0.0089 C.2       1 <0>         0.5801
      8 O1         -2.2887   -0.4115    0.0221 O.2       1 <0>        -0.4376
      9 N2         -1.0038   -2.2243    0.0006 N.am      1 <0>        -0.6143
     10 C6         -2.1067   -3.0560    0.0070 C.2       1 <0>         0.2128
     11 N3         -3.3845   -2.7182    0.0152 N.2       1 <0>        -0.5009
     12 C7         -4.3310   -3.6205    0.0203 C.2       1 <0>         0.0559
     13 C8         -3.9139   -4.9510    0.0165 C.2       1 <0>        -0.1394
     14 S1         -2.1408   -4.7385   -0.0011 S.3       1 <0>         0.1465
     15 C9         -4.6793   -6.1350    0.0202 C.2       1 <0>        -0.0640
     16 C10        -4.0580   -7.3481    0.0152 C.2       1 <0>        -0.1084
     17 C11        -4.8206   -8.5278    0.0189 C.2       1 <0>         0.4409
     18 O2         -6.1524   -8.4607    0.0272 O.co2     1 <0>        -0.6977
     19 O3         -4.2128   -9.7147    0.0141 O.co2     1 <0>        -0.7028
     20 N4          3.5854    0.7088   -0.0288 N.pl3     1 <0>         0.0590
     21 O4          4.1930   -0.3363   -0.0406 O.2       1 <0>        -0.1658
     22 O5          4.1867    1.7577   -0.0289 O.3       1 <0>        -0.1255
     23 H2         -0.8938    2.0050    0.0253 H         1 <0>         0.1798
     24 H3          1.6515    2.8299    0.0012 H         1 <0>         0.1783
     25 H4         -5.3766   -3.3504    0.0273 H         1 <0>         0.1847
     26 H5         -5.7579   -6.0807    0.0269 H         1 <0>         0.1574
     27 H6         -2.9794   -7.4023    0.0085 H         1 <0>         0.1079
     28 H7         -0.1109   -2.6030   -0.0099 H         1 <0>         0.4191
@<TRIPOS>BOND
     1    1    6 2
     2    1    2 1
     3    1   23 1
     4    2    3 2
     5    2   24 1
     6    3    4 1
     7    3   20 1
     8    4    5 1
     9    4    6 1
    10    6    7 1
    11    7    8 2
    12    7    9 am
    13    9   10 1
    14    9   28 1
    15   10   14 1
    16   10   11 2
    17   11   12 1
    18   12   13 2
    19   12   25 1
    20   13   14 1
    21   13   15 1
    22   15   16 2
    23   15   26 1
    24   16   17 1
    25   16   27 1
    26   17   18 2
    27   17   19 1
    28   20   21 2
    29   20   22 1
@<TRIPOS>MOLECULE
ZINC49175824
   27    29     0     0     0
SMALL
USER_CHARGES

@<TRIPOS>ATOM
      1 C1         -0.0187    1.5258    0.0104 C.3       1 <0>        -0.1612
      2 C2          1.3165    0.7789   -0.0063 C.3       1 <0>        -0.1631
      3 C3          0.0021   -0.0041    0.0020 C.3       1 <0>        -0.0817
      4 C4         -0.4023   -0.6984   -1.2729 C.2       1 <0>         0.0915
      5 C5         -1.4693   -1.5888   -1.4219 C.2       1 <0>        -0.1349
      6 C6         -1.4500   -1.9636   -2.7557 C.2       1 <0>         0.0159
      7 N1         -0.4004   -1.2967   -3.3240 N.pl3     1 <0>        -0.3699
      8 H1         -0.1365   -1.3596   -4.2553 H         1 <0>         0.4509
      9 N2          0.1797   -0.5703   -2.4377 N.2       1 <0>        -0.2625
     10 C7         -2.3724   -2.8919   -3.4251 C.2       1 <0>         0.5689
     11 O1         -3.2686   -3.4192   -2.7943 O.2       1 <0>        -0.4125
     12 N3         -2.2250   -3.1587   -4.7380 N.am      1 <0>        -0.6335
     13 C8         -3.0934   -4.0328   -5.3683 C.2       1 <0>         0.5286
     14 N4         -3.0124   -4.3444   -6.6312 N.2       1 <0>        -0.6525
     15 C9         -4.1101   -5.2912   -6.8967 C.3       1 <0>        -0.0235
     16 C10        -4.7882   -5.4258   -5.5472 C.2       1 <0>         0.4235
     17 O2         -5.8585   -6.1822   -5.2458 O.3       1 <0>        -0.6629
     18 N5         -4.1113   -4.6579   -4.7391 N.2       1 <0>        -0.6554
     19 Br1        -2.6811   -2.1603   -0.0875 Br        1 <0>         0.0223
     20 H2         -0.3072    2.0201    0.9381 H         1 <0>         0.1015
     21 H3         -0.3248    2.0300   -0.9061 H         1 <0>         0.0959
     22 H4          1.8888    0.7918   -0.9339 H         1 <0>         0.1024
     23 H5          1.9064    0.7818    0.9103 H         1 <0>         0.0992
     24 H6         -0.2728   -0.5162    0.9241 H         1 <0>         0.1282
     25 H7         -1.5102   -2.7381   -5.2411 H         1 <0>         0.4034
     26 H8         -4.8002   -4.8825   -7.6348 H         1 <0>         0.0906
     27 H9         -3.7171   -6.2527   -7.2272 H         1 <0>         0.0908
@<TRIPOS>BOND
     1    1    3 1
     2    1    2 1
     3    1   20 1
     4    1   21 1
     5    2    3 1
     6    2   22 1
     7    2   23 1
     8    3    4 1
     9    3   24 1
    10    4    9 2
    11    4    5 1
    12    5    6 2
    13    5   19 1
    14    6    7 1
    15    6   10 1
    16    7    8 1
    17    7    9 1
    18   10   11 2
    19   10   12 am
    20   12   13 1
    21   12   25 1
    22   13   18 1
    23   13   14 2
    24   14   15 1
    25   15   16 1
    26   15   26 1
    27   15   27 1
    28   16   17 1
    29   16   18 2
@<TRIPOS>MOLECULE
ZINC64486827
   42    43     0     0     0
SMALL
USER_CHARGES

@<TRIPOS>ATOM
      1 C1         -0.0184    1.5028    0.0103 C.3       1 <0>        -0.1317
      2 C2          0.0021   -0.0041    0.0020 C.2       1 <0>         0.0369
      3 C3          0.0060   -0.7062   -1.2115 C.2       1 <0>        -0.2293
      4 C4          0.0249   -2.0595   -1.2090 C.2       1 <0>         0.1628
      5 N1          0.0401   -2.7504   -0.0404 N.am      1 <0>        -0.6097
      6 H1          0.0536   -3.7202   -0.0569 H         1 <0>         0.4116
      7 C5          0.0373   -2.1048    1.1412 C.2       1 <0>         0.5248
      8 O1          0.0515   -2.7399    2.1835 O.2       1 <0>        -0.5358
      9 C6          0.0227   -0.6999    1.1750 C.2       1 <0>        -0.2358
     10 C7          0.0247    0.0301    2.4934 C.3       1 <0>         0.1901
     11 N2         -1.3484    0.1422    2.9916 N.am      1 <0>        -0.7407
     12 C8         -1.5916    0.7619    4.1635 C.2       1 <0>         0.5687
     13 O2         -0.6713    1.2280    4.8073 O.2       1 <0>        -0.4996
     14 C9         -2.9735    0.8746    4.6650 C.ar      1 <0>        -0.2104
     15 C10        -4.0337    0.3354    3.9314 C.ar      1 <0>        -0.0267
     16 C11        -5.3233    0.4443    4.4058 C.ar      1 <0>        -0.1474
     17 C12        -5.5751    1.0869    5.6089 C.ar      1 <0>        -0.0338
     18 C13        -4.5386    1.6244    6.3438 C.ar      1 <0>        -0.2479
     19 C14        -3.2315    1.5189    5.8846 C.ar      1 <0>         0.3368
     20 N3         -2.1857    2.0538    6.6264 N.2       1 <0>        -1.0317
     21 S1         -2.4948    2.8133    8.0652 S.o2      1 <0>         2.5153
     22 O3         -3.2791    3.9457    7.7162 O.2       1 <0>        -1.0287
     23 O4         -3.0237    1.7968    8.9055 O.2       1 <0>        -1.0280
     24 C15        -0.8691    3.3422    8.6718 C.3       1 <0>        -0.6307
     25 Cl1        -6.6390   -0.2257    3.4926 Cl        1 <0>        -0.1137
     26 C16         0.0285   -2.8074   -2.5173 C.3       1 <0>        -0.1254
     27 H2          1.0042    1.8801    0.0026 H         1 <0>         0.0832
     28 H3         -0.5455    1.8639   -0.8728 H         1 <0>         0.0742
     29 H4         -0.5286    1.8543    0.9071 H         1 <0>         0.0845
     30 H5         -0.0064   -0.1676   -2.1475 H         1 <0>         0.1445
     31 H6          0.6286   -0.5220    3.2135 H         1 <0>         0.0736
     32 H7          0.4438    1.0269    2.3561 H         1 <0>         0.0730
     33 H8         -2.0826   -0.2296    2.4781 H         1 <0>         0.3892
     34 H9         -3.8429   -0.1656    2.9938 H         1 <0>         0.1141
     35 H10        -6.5889    1.1673    5.9725 H         1 <0>         0.1154
     36 H11        -4.7430    2.1239    7.2793 H         1 <0>         0.1157
     37 H12        -0.4138    4.0187    7.9484 H         1 <0>         0.1173
     38 H13        -0.9868    3.8562    9.6257 H         1 <0>         0.1009
     39 H14        -0.2297    2.4696    8.8057 H         1 <0>         0.1175
     40 H15         1.0569   -2.9734   -2.8381 H         1 <0>         0.0883
     41 H16        -0.4713   -3.7674   -2.3885 H         1 <0>         0.0765
     42 H17        -0.4975   -2.2223   -3.2718 H         1 <0>         0.0923
@<TRIPOS>BOND
     1    1    2 1
     2    1   27 1
     3    1   28 1
     4    1   29 1
     5    2    9 2
     6    2    3 1
     7    3    4 2
     8    3   30 1
     9    4    5 1
    10    4   26 1
    11    5    6 1
    12    5    7 am
    13    7    8 2
    14    7    9 1
    15    9   10 1
    16   10   11 1
    17   10   31 1
    18   10   32 1
    19   11   12 am
    20   11   33 1
    21   12   13 2
    22   12   14 1
    23   14   19 ar
    24   14   15 ar
    25   15   16 ar
    26   15   34 1
    27   16   17 ar
    28   16   25 1
    29   17   18 ar
    30   17   35 1
    31   18   19 ar
    32   18   36 1
    33   19   20 1
    34   20   21 1
    35   21   22 2
    36   21   23 2
    37   21   24 1
    38   24   37 1
    39   24   38 1
    40   24   39 1
    41   26   40 1
    42   26   41 1
    43   26   42 1
@<TRIPOS>MOLECULE
ZINC36745519
   41    41     0     0     0
SMALL
USER_CHARGES

@<TRIPOS>ATOM
      1 C1         -0.4562    0.7472   -0.0636 C.3       1 <0>        -0.0987
      2 C2          0.7523    1.7036   -0.1224 C.3       1 <0>        -0.1728
      3 C3          1.2929    1.8768    1.2712 C.3       1 <0>        -0.0936
      4 C4          2.4440    0.9012    1.5824 C.3       1 <0>        -0.0887
      5 C5          2.1825   -0.5206    1.0496 C.3       1 <0>        -0.1208
      6 C6          0.7628   -0.9669    1.2720 C.3       1 <0>        -0.0765
      7 C7         -0.0551   -0.6503    0.0032 C.3       1 <0>        -0.1626
      8 C8          3.1247   -1.4958    1.7583 C.3       1 <0>        -0.1103
      9 C9          2.8801   -2.8920    1.2467 C.2       1 <0>         0.4857
     10 O1          2.0354   -3.0879    0.3988 O.2       1 <0>        -0.4436
     11 N1          3.6001   -3.9231    1.7314 N.am      1 <0>        -0.7462
     12 C10         3.3623   -5.2804    1.2341 C.3       1 <0>         0.1372
     13 C11         4.3046   -6.2556    1.9427 C.3       1 <0>        -0.6386
     14 S1          4.0101   -7.9363    1.3269 S.o2      1 <0>         2.6242
     15 O2          2.7263   -8.3890    1.7345 O.2       1 <0>        -0.9583
     16 O3          4.4169   -8.0383   -0.0308 O.2       1 <0>        -0.9555
     17 N2          5.0782   -8.8882    2.1607 N.pl3     1 <0>        -1.2517
     18 C12         2.4768   -0.5493   -0.4281 C.2       1 <0>         0.5095
     19 O4          3.0344    0.3971   -0.9571 O.co2     1 <0>        -0.6933
     20 O5          2.1573   -1.5190   -1.0946 O.co2     1 <0>        -0.6465
     21 H1         -1.0527    0.9857    0.8170 H         1 <0>         0.0311
     22 H2         -1.0682    0.8966   -0.9532 H         1 <0>         0.0388
     23 H3          1.5242    1.2794   -0.7644 H         1 <0>         0.1391
     24 H4          0.4358    2.6699   -0.5150 H         1 <0>         0.0358
     25 H5          1.6560    2.8983    1.3842 H         1 <0>         0.0412
     26 H6          0.4865    1.7102    1.9855 H         1 <0>         0.0400
     27 H7          3.3598    1.2828    1.1311 H         1 <0>         0.0674
     28 H8          2.5809    0.8522    2.6626 H         1 <0>         0.0326
     29 H9          0.7420   -2.0399    1.4628 H         1 <0>         0.0645
     30 H10         0.3401   -0.4327    2.1229 H         1 <0>         0.0302
     31 H11        -0.9484   -1.2748   -0.0060 H         1 <0>         0.0300
     32 H12         0.5478   -0.8868   -0.8736 H         1 <0>         0.1313
     33 H13         4.1582   -1.2118    1.5594 H         1 <0>         0.0795
     34 H14         2.9395   -1.4646    2.8320 H         1 <0>         0.0738
     35 H15         4.2758   -3.7664    2.4095 H         1 <0>         0.3928
     36 H16         2.3289   -5.5644    1.4329 H         1 <0>         0.0788
     37 H17         3.5476   -5.3116    0.1604 H         1 <0>         0.0818
     38 H18         5.3380   -5.9716    1.7439 H         1 <0>         0.1407
     39 H19         4.1193   -6.2244    3.0164 H         1 <0>         0.1396
     40 H20         5.6762   -8.4901    2.8125 H         1 <0>         0.4123
     41 H21         5.1059   -9.8440    1.9974 H         1 <0>         0.4202
@<TRIPOS>BOND
     1    1    7 1
     2    1    2 1
     3    1   21 1
     4    1   22 1
     5    2    3 1
     6    2   23 1
     7    2   24 1
     8    3    4 1
     9    3   25 1
    10    3   26 1
    11    4    5 1
    12    4   27 1
    13    4   28 1
    14    5    6 1
    15    5    8 1
    16    5   18 1
    17    6    7 1
    18    6   29 1
    19    6   30 1
    20    7   31 1
    21    7   32 1
    22    8    9 1
    23    8   33 1
    24    8   34 1
    25    9   10 2
    26    9   11 am
    27   11   12 1
    28   11   35 1
    29   12   13 1
    30   12   36 1
    31   12   37 1
    32   13   14 1
    33   13   38 1
    34   13   39 1
    35   14   15 2
    36   14   16 2
    37   14   17 1
    38   17   40 1
    39   17   41 1
    40   18   19 2
    41   18   20 1
@<TRIPOS>MOLECULE
ZINC37586419
   45    45     0     0     0
SMALL
USER_CHARGES

@<TRIPOS>ATOM
      1 C1         -0.0820    1.4118    0.4844 C.3       1 <0>        -0.1514
      2 C2         -0.1878   -0.1102    0.5990 C.3       1 <0>        -0.1168
      3 C3         -1.5645   -0.5640    0.1095 C.3       1 <0>        -0.0973
      4 H1         -1.7317   -0.1917   -0.9012 H         1 <0>         0.0919
      5 C4         -2.6448   -0.0118    1.0417 C.3       1 <0>        -0.1473
      6 C5         -1.6263   -2.0928    0.1065 C.3       1 <0>         0.1538
      7 H2         -0.8369   -2.4871   -0.5335 H         1 <0>         0.1142
      8 C6         -2.9671   -2.5403   -0.4160 C.2       1 <0>         0.5211
      9 O1         -3.8365   -2.8811    0.3579 O.2       1 <0>        -0.5626
     10 N1         -3.2001   -2.5618   -1.7433 N.am      1 <0>        -0.5674
     11 C7         -2.1499   -2.1502   -2.6781 C.3       1 <0>         0.0283
     12 C8         -1.3191   -3.3482   -3.0596 C.2       1 <0>         0.4761
     13 O2         -1.5800   -4.4443   -2.5938 O.co2     1 <0>        -0.6563
     14 O3         -0.3860   -3.2214   -3.8340 O.co2     1 <0>        -0.7042
     15 C9         -4.5035   -2.9969   -2.2513 C.3       1 <0>         0.1434
     16 C10        -4.3234   -4.1814   -3.2230 C.3       1 <0>        -0.1375
     17 C11        -5.3878   -3.9369   -4.3213 C.3       1 <0>        -0.1252
     18 C12        -5.3563   -2.3977   -4.4912 C.3       1 <0>        -0.1214
     19 C13        -5.1603   -1.8628   -3.0576 C.3       1 <0>        -0.1332
     20 N2         -1.4429   -2.5917    1.4717 N.am      1 <0>        -0.7198
     21 C14        -0.9794   -3.8405    1.6762 C.2       1 <0>         0.6954
     22 O4         -0.8012   -4.5851    0.7317 O.2       1 <0>        -0.5586
     23 N3         -0.7133   -4.2640    2.9277 N.am      1 <0>        -0.8716
     24 H3          0.8988    1.7351    0.8331 H         1 <0>         0.0528
     25 H4         -0.2132    1.7077   -0.5564 H         1 <0>         0.0556
     26 H5         -0.8561    1.8768    1.0948 H         1 <0>         0.0550
     27 H6          0.5863   -0.5753   -0.0113 H         1 <0>         0.0686
     28 H7         -0.0565   -0.4062    1.6398 H         1 <0>         0.0630
     29 H8         -2.4820   -0.3902    2.0509 H         1 <0>         0.0531
     30 H9         -2.5959    1.0771    1.0496 H         1 <0>         0.0613
     31 H10        -3.6261   -0.3289    0.6887 H         1 <0>         0.0613
     32 H11        -2.6057   -1.7245   -3.5721 H         1 <0>         0.0751
     33 H12        -1.5137   -1.4030   -2.2038 H         1 <0>         0.0727
     34 H13        -5.1488   -3.2878   -1.4224 H         1 <0>         0.0905
     35 H14        -3.3221   -4.1728   -3.6535 H         1 <0>         0.1059
     36 H15        -4.5121   -5.1258   -2.7124 H         1 <0>         0.0608
     37 H16        -5.1062   -4.4338   -5.2497 H         1 <0>         0.0630
     38 H17        -6.3709   -4.2686   -3.9872 H         1 <0>         0.0589
     39 H18        -4.5218   -2.1010   -5.1266 H         1 <0>         0.0652
     40 H19        -6.2988   -2.0403   -4.9062 H         1 <0>         0.0593
     41 H20        -6.1247   -1.6038   -2.6205 H         1 <0>         0.0633
     42 H21        -4.5092   -0.9887   -3.0710 H         1 <0>         0.0667
     43 H22        -1.6552   -2.0231    2.2284 H         1 <0>         0.3927
     44 H23        -0.8555   -3.6700    3.6813 H         1 <0>         0.3903
     45 H24        -0.3796   -5.1629    3.0749 H         1 <0>         0.4115
@<TRIPOS>BOND
     1    1    2 1
     2    1   24 1
     3    1   25 1
     4    1   26 1
     5    2    3 1
     6    2   27 1
     7    2   28 1
     8    3    4 1
     9    3    5 1
    10    3    6 1
    11    5   29 1
    12    5   30 1
    13    5   31 1
    14    6    7 1
    15    6    8 1
    16    6   20 1
    17    8    9 2
    18    8   10 am
    19   10   11 1
    20   10   15 1
    21   11   12 1
    22   11   32 1
    23   11   33 1
    24   12   13 2
    25   12   14 1
    26   15   19 1
    27   15   16 1
    28   15   34 1
    29   16   17 1
    30   16   35 1
    31   16   36 1
    32   17   18 1
    33   17   37 1
    34   17   38 1
    35   18   19 1
    36   18   39 1
    37   18   40 1
    38   19   41 1
    39   19   42 1
    40   20   21 am
    41   20   43 1
    42   21   22 2
    43   21   23 am
    44   23   44 1
    45   23   45 1
@<TRIPOS>MOLECULE
ZINC41718234
   35    35     0     0     0
SMALL
USER_CHARGES

@<TRIPOS>ATOM
      1 C1          0.8713   -0.5020    1.1473 C.3       1 <0>        -0.2022
      2 C2          0.0326   -0.0007   -0.0000 C.2       1 <0>         0.4010
      3 O1         -0.6341    1.0043    0.1298 O.2       1 <0>        -0.4734
      4 C3          0.0224   -0.7288   -1.2751 C.ar      1 <0>        -0.2105
      5 C4          0.7870   -1.8927   -1.4254 C.ar      1 <0>        -0.0463
      6 C5          0.7741   -2.5671   -2.6133 C.ar      1 <0>        -0.1379
      7 C6          0.0030   -2.0989   -3.6737 C.ar      1 <0>         0.2214
      8 C7         -0.7585   -0.9425   -3.5288 C.ar      1 <0>        -0.1730
      9 C8         -0.7563   -0.2648   -2.3428 C.ar      1 <0>        -0.0365
     10 N1         -0.0062   -2.7894   -4.8834 N.am      1 <0>        -0.6895
     11 C9          0.1081   -4.1323   -4.8938 C.2       1 <0>         0.7011
     12 O2          0.1219   -4.7493   -3.8463 O.2       1 <0>        -0.5684
     13 N2          0.2071   -4.7912   -6.0653 N.am      1 <0>        -0.7038
     14 C10         0.3314   -6.2509   -6.0765 C.3       1 <0>         0.0950
     15 H1         -0.2549   -6.6717   -5.2597 H         1 <0>         0.0867
     16 C11        -0.1855   -6.7965   -7.4092 C.3       1 <0>        -0.1108
     17 C12        -1.6851   -6.5170   -7.5275 C.3       1 <0>         0.0781
     18 O3         -2.1679   -7.0266   -8.7722 O.3       1 <0>        -0.5753
     19 C13         1.7789   -6.6331   -5.9048 C.2       1 <0>         0.4930
     20 O4          2.0716   -7.6817   -5.3557 O.co2     1 <0>        -0.6897
     21 O5          2.6575   -5.8939   -6.3149 O.co2     1 <0>        -0.6881
     22 H2          0.2827   -1.1901    1.7541 H         1 <0>         0.0966
     23 H3          1.7477   -1.0198    0.7576 H         1 <0>         0.0875
     24 H4          1.1900    0.3413    1.7600 H         1 <0>         0.0846
     25 H5          1.3860   -2.2563   -0.6035 H         1 <0>         0.1343
     26 H6          1.3633   -3.4647   -2.7301 H         1 <0>         0.1471
     27 H7         -1.3552   -0.5829   -4.3541 H         1 <0>         0.1293
     28 H8         -1.3509    0.6297   -2.2299 H         1 <0>         0.1329
     29 H9         -0.0950   -2.3038   -5.7184 H         1 <0>         0.4064
     30 H10         0.1961   -4.2989   -6.9010 H         1 <0>         0.3914
     31 H11         0.3408   -6.3092   -8.2300 H         1 <0>         0.0731
     32 H12        -0.0117   -7.8716   -7.4536 H         1 <0>         0.0864
     33 H13        -2.2114   -7.0043   -6.7068 H         1 <0>         0.0450
     34 H14        -1.8589   -5.4419   -7.4831 H         1 <0>         0.0415
     35 H15        -3.1136   -6.8843   -8.9152 H         1 <0>         0.3729
@<TRIPOS>BOND
     1    1    2 1
     2    1   22 1
     3    1   23 1
     4    1   24 1
     5    2    3 2
     6    2    4 1
     7    4    9 ar
     8    4    5 ar
     9    5    6 ar
    10    5   25 1
    11    6    7 ar
    12    6   26 1
    13    7    8 ar
    14    7   10 1
    15    8    9 ar
    16    8   27 1
    17    9   28 1
    18   10   11 am
    19   10   29 1
    20   11   12 2
    21   11   13 am
    22   13   14 1
    23   13   30 1
    24   14   15 1
    25   14   16 1
    26   14   19 1
    27   16   17 1
    28   16   31 1
    29   16   32 1
    30   17   18 1
    31   17   33 1
    32   17   34 1
    33   18   35 1
    34   19   20 2
    35   19   21 1
@<TRIPOS>MOLECULE
ZINC45110981
   42    41     0     0     0
SMALL
USER_CHARGES

@<TRIPOS>ATOM
      1 C1         -0.0187    1.5258    0.0104 C.3       1 <0>        -0.1806
      2 C2          0.0021   -0.0041    0.0020 C.3       1 <0>         0.1123
      3 H1          0.5123   -0.3556   -0.8948 H         1 <0>         0.0491
      4 C3          0.7421   -0.5109    1.2415 C.3       1 <0>         0.0975
      5 H2          0.2319   -0.1594    2.1383 H         1 <0>         0.0868
      6 C4          0.7625   -2.0177    1.2333 C.2       1 <0>         0.4931
      7 O1          1.8087   -2.6121    1.0367 O.co2     1 <0>        -0.6962
      8 O2         -0.2672   -2.6424    1.4231 O.co2     1 <0>        -0.6807
      9 N1          2.1165   -0.0038    1.2311 N.am      1 <0>        -0.7078
     10 C5          2.7950    0.1277    2.3882 C.2       1 <0>         0.7119
     11 O3          2.2664   -0.1744    3.4407 O.2       1 <0>        -0.5943
     12 N2          4.0594    0.5943    2.3786 N.am      1 <0>        -0.7476
     13 C6          4.7969    0.7373    3.6363 C.3       1 <0>         0.1455
     14 C7          6.1971    1.2823    3.3474 C.3       1 <0>         0.0521
     15 O4          6.0932    2.6053    2.8175 O.3       1 <0>        -0.3846
     16 C8          7.3516    3.2094    2.5116 C.3       1 <0>         0.0596
     17 C9          7.1204    4.6154    1.9544 C.3       1 <0>        -0.1145
     18 C10         8.4677    5.2622    1.6269 C.3       1 <0>        -0.0945
     19 C11         9.1451    4.4851    0.4963 C.3       1 <0>        -0.1522
     20 C12         8.2448    6.7108    1.1878 C.3       1 <0>        -0.1470
     21 O5         -1.3386   -0.4987    0.0122 O.3       1 <0>        -0.5333
     22 H3          1.0039    1.9031    0.0027 H         1 <0>         0.0616
     23 H4         -0.5459    1.8868   -0.8726 H         1 <0>         0.0517
     24 H5         -0.5289    1.8773    0.9072 H         1 <0>         0.0613
     25 H6          2.5382    0.2372    0.3915 H         1 <0>         0.3851
     26 H7          4.4811    0.8353    1.5390 H         1 <0>         0.3934
     27 H8          4.2665    1.4277    4.2921 H         1 <0>         0.0702
     28 H9          4.8787   -0.2350    4.1222 H         1 <0>         0.0794
     29 H10         6.7758    1.3051    4.2708 H         1 <0>         0.0638
     30 H11         6.6950    0.6386    2.6223 H         1 <0>         0.0563
     31 H12         7.9543    3.2722    3.4176 H         1 <0>         0.0459
     32 H13         7.8735    2.6056    1.7692 H         1 <0>         0.0502
     33 H14         6.5177    4.5526    1.0483 H         1 <0>         0.0715
     34 H15         6.5985    5.2192    2.6968 H         1 <0>         0.0702
     35 H16         9.1039    5.2445    2.5118 H         1 <0>         0.0698
     36 H17         8.5089    4.5027   -0.3887 H         1 <0>         0.0567
     37 H18        10.1049    4.9458    0.2629 H         1 <0>         0.0539
     38 H19         9.3039    3.4531    0.8091 H         1 <0>         0.0561
     39 H20         7.7623    7.2644    1.9932 H         1 <0>         0.0551
     40 H21         9.2047    7.1715    0.9545 H         1 <0>         0.0547
     41 H22         7.6086    6.7284    0.3029 H         1 <0>         0.0559
     42 H23        -1.8677   -0.2163   -0.7464 H         1 <0>         0.3625
@<TRIPOS>BOND
     1    1    2 1
     2    1   22 1
     3    1   23 1
     4    1   24 1
     5    2    3 1
     6    2    4 1
     7    2   21 1
     8    4    5 1
     9    4    6 1
    10    4    9 1
    11    6    7 2
    12    6    8 1
    13    9   10 am
    14    9   25 1
    15   10   11 2
    16   10   12 am
    17   12   13 1
    18   12   26 1
    19   13   14 1
    20   13   27 1
    21   13   28 1
    22   14   15 1
    23   14   29 1
    24   14   30 1
    25   15   16 1
    26   16   17 1
    27   16   31 1
    28   16   32 1
    29   17   18 1
    30   17   33 1
    31   17   34 1
    32   18   19 1
    33   18   20 1
    34   18   35 1
    35   19   36 1
    36   19   37 1
    37   19   38 1
    38   20   39 1
    39   20   40 1
    40   20   41 1
    41   21   42 1
@<TRIPOS>MOLECULE
ZINC56926386
   38    38     0     0     0
SMALL
USER_CHARGES

@<TRIPOS>ATOM
      1 C1         -0.0187    1.5258    0.0104 C.3       1 <0>        -0.1534
      2 C2          0.0021   -0.0041    0.0020 C.3       1 <0>         0.2066
      3 H1          0.5293   -0.3651    0.8851 H         1 <0>         0.0909
      4 C3         -1.4117   -0.5257    0.0127 C.ar      1 <0>        -0.0600
      5 C4         -2.1411   -0.5685   -1.1616 C.ar      1 <0>        -0.2220
      6 C5         -3.4387   -1.0459   -1.1562 C.ar      1 <0>        -0.0669
      7 C6         -4.0108   -1.4823    0.0229 C.ar      1 <0>        -0.2556
      8 C7         -3.2810   -1.4411    1.2039 C.ar      1 <0>         0.2858
      9 C8         -1.9756   -0.9656    1.1939 C.ar      1 <0>        -0.1710
     10 N1         -3.8564   -1.8815    2.3979 N.2       1 <0>        -1.0991
     11 S1         -5.4104   -2.4537    2.4066 S.o2      1 <0>         2.5254
     12 O1         -6.2092   -1.3391    2.0341 O.2       1 <0>        -1.0314
     13 O2         -5.3718   -3.6203    1.5962 O.2       1 <0>        -1.0317
     14 C9         -5.7320   -2.9034    4.1343 C.3       1 <0>        -0.6372
     15 N2          0.6878   -0.4765   -1.2033 N.am      1 <0>        -0.7327
     16 C10         2.0310   -0.5870   -1.2149 C.2       1 <0>         0.7035
     17 O3          2.6736   -0.2945   -0.2251 O.2       1 <0>        -0.5970
     18 N3          2.6618   -1.0216   -2.3238 N.am      1 <0>        -0.7459
     19 C11         4.1218   -1.1417   -2.3364 C.3       1 <0>         0.1403
     20 C12         4.5797   -1.6524   -3.7041 C.3       1 <0>         0.0634
     21 O4          4.2718   -0.6787   -4.7037 O.3       1 <0>        -0.5705
     22 H2          1.0039    1.9031    0.0027 H         1 <0>         0.0555
     23 H3         -0.5459    1.8868   -0.8726 H         1 <0>         0.0553
     24 H4         -0.5289    1.8773    0.9072 H         1 <0>         0.0676
     25 H5         -1.6962   -0.2279   -2.0849 H         1 <0>         0.0971
     26 H6         -4.0057   -1.0773   -2.0748 H         1 <0>         0.1002
     27 H7         -5.0245   -1.8547    0.0265 H         1 <0>         0.1003
     28 H8         -1.4040   -0.9360    2.1098 H         1 <0>         0.1120
     29 H9         -5.6235   -2.0214    4.7655 H         1 <0>         0.1150
     30 H10        -6.7458   -3.2931    4.2256 H         1 <0>         0.1004
     31 H11        -5.0198   -3.6659    4.4499 H         1 <0>         0.1148
     32 H12         0.1751   -0.7099   -1.9930 H         1 <0>         0.3963
     33 H13         2.1491   -1.2550   -3.1135 H         1 <0>         0.3974
     34 H14         4.5683   -0.1659   -2.1449 H         1 <0>         0.0712
     35 H15         4.4354   -1.8429   -1.5631 H         1 <0>         0.0793
     36 H16         5.6556   -1.8262   -3.6854 H         1 <0>         0.0624
     37 H17         4.0649   -2.5851   -3.9346 H         1 <0>         0.0535
     38 H18         4.5348   -0.9363   -5.5978 H         1 <0>         0.3800
@<TRIPOS>BOND
     1    1    2 1
     2    1   22 1
     3    1   23 1
     4    1   24 1
     5    2    3 1
     6    2    4 1
     7    2   15 1
     8    4    9 ar
     9    4    5 ar
    10    5    6 ar
    11    5   25 1
    12    6    7 ar
    13    6   26 1
    14    7    8 ar
    15    7   27 1
    16    8    9 ar
    17    8   10 1
    18    9   28 1
    19   10   11 1
    20   11   12 2
    21   11   13 2
    22   11   14 1
    23   14   29 1
    24   14   30 1
    25   14   31 1
    26   15   16 am
    27   15   32 1
    28   16   17 2
    29   16   18 am
    30   18   19 1
    31   18   33 1
    32   19   20 1
    33   19   34 1
    34   19   35 1
    35   20   21 1
    36   20   36 1
    37   20   37 1
    38   21   38 1
@<TRIPOS>MOLECULE
ZINC20312877
   33    34     0     0     0
SMALL
USER_CHARGES
(2R)-4-amino-2-[(6-ethylthieno[3,2-e]pyrimidin-4-yl)amino]-4-oxo-butanoic acid
@<TRIPOS>ATOM
      1 C1         -3.1684   -1.6212    7.1015 C.3       1 <0>        -0.1514
      2 C2         -2.0639   -2.2430    6.2446 C.3       1 <0>        -0.0336
      3 C3         -2.5504   -2.3876    4.8256 C.2       1 <0>        -0.1627
      4 C4         -2.4508   -1.5058    3.8199 C.2       1 <0>        -0.0906
      5 C5         -2.9885   -1.8534    2.5162 C.ar      1 <0>        -0.2665
      6 C6         -3.0125   -1.0981    1.3112 C.ar      1 <0>         0.5213
      7 N1         -3.5704   -1.6226    0.2323 N.ar      1 <0>        -0.5818
      8 C7         -4.1135   -2.8270    0.2357 C.ar      1 <0>         0.3681
      9 N2         -4.1267   -3.5726    1.3234 N.ar      1 <0>        -0.5502
     10 C8         -3.5924   -3.1277    2.4437 C.ar      1 <0>         0.1603
     11 S1         -3.3957   -3.7712    4.0842 S.3       1 <0>         0.0677
     12 N3         -2.4545    0.1667    1.2664 N.pl3     1 <0>        -0.6604
     13 C9         -2.4789    0.9344    0.0189 C.3       1 <0>         0.1234
     14 H1         -2.3774    0.2205   -0.8118 H         1 <0>         0.1037
     15 C10        -1.3296    1.9443    0.0189 C.3       1 <0>        -0.1348
     16 C11        -0.0144    1.2086    0.0087 C.2       1 <0>         0.5136
     17 O1          0.0021   -0.0041    0.0020 O.2       1 <0>        -0.5407
     18 N4          1.1435    1.8983    0.0013 N.am      1 <0>        -0.8841
     19 C12        -3.7911    1.6666   -0.0947 C.2       1 <0>         0.4611
     20 O2         -4.6208    1.5584    0.7769 O.co2     1 <0>        -0.6233
     21 O3         -4.0381    2.4391   -1.1643 O.co2     1 <0>        -0.7642
     22 H2         -2.8133   -1.5157    8.1372 H         1 <0>         0.0603
     23 H3         -4.0563   -2.2702    7.0826 H         1 <0>         0.0589
     24 H4         -3.4296   -0.6307    6.7007 H         1 <0>         0.0598
     25 H5         -1.1760   -1.5940    6.2635 H         1 <0>         0.0834
     26 H6         -1.8026   -3.2335    6.6454 H         1 <0>         0.0775
     27 H7         -1.9726   -0.5502    3.9765 H         1 <0>         0.1274
     28 H8         -4.5559   -3.2094   -0.6722 H         1 <0>         0.1999
     29 H9         -1.9924    0.5961    2.1675 H         1 <0>         0.4175
     30 H10        -1.4007    2.5807   -0.8755 H         1 <0>         0.1191
     31 H11        -1.3922    2.5710    0.9207 H         1 <0>         0.0914
     32 H12         2.1035    1.3613   -0.0061 H         1 <0>         0.4126
     33 H13         1.1285    2.9982    0.0027 H         1 <0>         0.4175
@<TRIPOS>BOND
     1    1    2 1
     2    1   22 1
     3    1   23 1
     4    1   24 1
     5    2    3 1
     6    2   25 1
     7    2   26 1
     8    3   11 1
     9    3    4 2
    10    4    5 1
    11    4   27 1
    12    5   10 ar
    13    5    6 ar
    14    6    7 ar
    15    6   12 1
    16    7    8 ar
    17    8    9 ar
    18    8   28 1
    19    9   10 ar
    20   10   11 1
    21   12   13 1
    22   12   29 1
    23   13   14 1
    24   13   15 1
    25   13   19 1
    26   15   16 1
    27   15   30 1
    28   15   31 1
    29   16   17 2
    30   16   18 am
    31   18   32 1
    32   18   33 1
    33   19   20 2
    34   19   21 1
@<TRIPOS>MOLECULE
ZINC36983713
   32    32     0     0     0
SMALL
USER_CHARGES

@<TRIPOS>ATOM
      1 C1          0.3142    1.2691   -1.2217 C.ar      1 <0>        -0.1195
      2 C2          0.9033    2.0672   -0.2621 C.ar      1 <0>        -0.0802
      3 C3          1.6099    1.4856    0.7918 C.ar      1 <0>        -0.1331
      4 C4          1.7173    0.0970    0.8710 C.ar      1 <0>        -0.0433
      5 C5          1.1215   -0.6959   -0.0977 C.ar      1 <0>         0.1197
      6 C6          0.4204   -0.1066   -1.1436 C.ar      1 <0>        -0.0904
      7 N1          1.2265   -2.0871   -0.0233 N.pl3     1 <0>        -1.0701
      8 S1          0.3239   -2.9277    1.0817 S.o2      1 <0>         2.5955
      9 O1          0.6822   -4.2883    0.8827 O.2       1 <0>        -0.9528
     10 O2          0.5799   -2.2851    2.3230 O.2       1 <0>        -0.9438
     11 C7         -1.3982   -2.6554    0.5806 C.3       1 <0>        -0.6138
     12 C8         -2.3353   -3.2916    1.6093 C.3       1 <0>        -0.0867
     13 C9         -3.7877   -3.0620    1.1867 C.3       1 <0>        -0.1741
     14 C10        -4.7107   -3.6886    2.1999 C.2       1 <0>         0.4885
     15 O3         -4.2495   -4.2654    3.1700 O.co2     1 <0>        -0.6951
     16 O4         -5.9186   -3.6188    2.0494 O.co2     1 <0>        -0.7039
     17 C11         2.2427    2.3384    1.8206 C.2       1 <0>         0.5632
     18 O5          2.8575    1.8297    2.7375 O.2       1 <0>        -0.5301
     19 N2          2.1379    3.6797    1.7417 N.am      1 <0>        -0.8515
     20 H1         -0.2355    1.7211   -2.0341 H         1 <0>         0.1374
     21 H2          0.8180    3.1419   -0.3268 H         1 <0>         0.1308
     22 H3          2.2630   -0.3587    1.6839 H         1 <0>         0.1509
     23 H4         -0.0430   -0.7259   -1.8973 H         1 <0>         0.1377
     24 H5          1.8281   -2.5606   -0.6189 H         1 <0>         0.4238
     25 H6         -1.5949   -1.5849    0.5231 H         1 <0>         0.1266
     26 H7         -1.5686   -3.1092   -0.3957 H         1 <0>         0.1295
     27 H8         -2.1385   -4.3621    1.6668 H         1 <0>         0.0768
     28 H9         -2.1648   -2.8379    2.5856 H         1 <0>         0.0797
     29 H10        -3.9845   -1.9914    1.1292 H         1 <0>         0.0608
     30 H11        -3.9581   -3.5157    0.2104 H         1 <0>         0.0609
     31 H12         1.6473    4.0857    1.0100 H         1 <0>         0.4004
     32 H13         2.5531    4.2392    2.4166 H         1 <0>         0.4060
@<TRIPOS>BOND
     1    1    6 ar
     2    1    2 ar
     3    1   20 1
     4    2    3 ar
     5    2   21 1
     6    3    4 ar
     7    3   17 1
     8    4    5 ar
     9    4   22 1
    10    5    6 ar
    11    5    7 1
    12    6   23 1
    13    7    8 1
    14    7   24 1
    15    8    9 2
    16    8   10 2
    17    8   11 1
    18   11   12 1
    19   11   25 1
    20   11   26 1
    21   12   13 1
    22   12   27 1
    23   12   28 1
    24   13   14 1
    25   13   29 1
    26   13   30 1
    27   14   15 2
    28   14   16 1
    29   17   18 2
    30   17   19 am
    31   19   31 1
    32   19   32 1
@<TRIPOS>MOLECULE
ZINC41036420
   43    43     0     0     0
SMALL
USER_CHARGES

@<TRIPOS>ATOM
      1 C1         -0.0187    1.5258    0.0104 C.3       1 <0>        -0.1443
      2 C2          0.0021   -0.0041    0.0020 C.3       1 <0>        -0.0917
      3 H1          0.5123   -0.3556   -0.8948 H         1 <0>         0.0609
      4 C3         -1.4333   -0.5336    0.0129 C.3       1 <0>        -0.1086
      5 C4         -1.4126   -2.0635    0.0045 C.3       1 <0>        -0.1123
      6 C5         -0.6726   -2.5703    1.2440 C.3       1 <0>        -0.1124
      7 C6          0.7628   -2.0407    1.2331 C.3       1 <0>         0.1278
      8 C7          0.7421   -0.5109    1.2415 C.3       1 <0>        -0.0979
      9 C8          1.4917   -2.5400    2.4540 C.2       1 <0>         0.5009
     10 O1          2.4913   -3.2267    2.3289 O.co2     1 <0>        -0.6737
     11 O2          1.0818   -2.2571    3.5669 O.co2     1 <0>        -0.7051
     12 N1          1.4485   -2.5132    0.0278 N.am      1 <0>        -0.7157
     13 C9          1.5876   -3.8353   -0.1939 C.2       1 <0>         0.7161
     14 O3          1.1439   -4.6359    0.6064 O.2       1 <0>        -0.5688
     15 N2          2.2184   -4.2700   -1.3028 N.am      1 <0>        -0.6228
     16 C10         2.3696   -5.7071   -1.5438 C.3       1 <0>         0.1438
     17 C11         1.1662   -6.2205   -2.3371 C.3       1 <0>         0.0588
     18 O4          1.1582   -5.6186   -3.6331 O.3       1 <0>        -0.5709
     19 C12         2.7530   -3.3053   -2.2671 C.3       1 <0>         0.1213
     20 C13         4.1950   -2.9563   -1.8934 C.3       1 <0>         0.0525
     21 O5          5.0161   -4.1184   -2.0264 O.3       1 <0>        -0.5658
     22 H2          1.0039    1.9031    0.0027 H         1 <0>         0.0514
     23 H3         -0.5459    1.8868   -0.8726 H         1 <0>         0.0486
     24 H4         -0.5289    1.8773    0.9072 H         1 <0>         0.0540
     25 H5         -1.9435   -0.1821    0.9097 H         1 <0>         0.0601
     26 H6         -1.9605   -0.1726   -0.8702 H         1 <0>         0.0515
     27 H7         -2.4352   -2.4408    0.0122 H         1 <0>         0.0502
     28 H8         -0.9024   -2.4150   -0.8923 H         1 <0>         0.0537
     29 H9         -1.1828   -2.2188    2.1408 H         1 <0>         0.0658
     30 H10        -0.6578   -3.6602    1.2380 H         1 <0>         0.0765
     31 H11         1.7647   -0.1336    1.2338 H         1 <0>         0.0560
     32 H12         0.2319   -0.1594    2.1383 H         1 <0>         0.0799
     33 H13         1.8025   -1.8745   -0.6107 H         1 <0>         0.3761
     34 H14         3.2824   -5.8862   -2.1119 H         1 <0>         0.0840
     35 H15         2.4264   -6.2314   -0.5899 H         1 <0>         0.0932
     36 H16         1.2341   -7.3035   -2.4398 H         1 <0>         0.0472
     37 H17         0.2472   -5.9623   -1.8109 H         1 <0>         0.0487
     38 H18         0.4208   -5.8989   -4.1924 H         1 <0>         0.3699
     39 H19         2.7317   -3.7405   -3.2662 H         1 <0>         0.0900
     40 H20         2.1447   -2.4010   -2.2517 H         1 <0>         0.0769
     41 H21         4.5630   -2.1736   -2.5568 H         1 <0>         0.0463
     42 H22         4.2281   -2.6041   -0.8624 H         1 <0>         0.0540
     43 H23         5.9457   -3.9705   -1.8051 H         1 <0>         0.3739
@<TRIPOS>BOND
     1    1    2 1
     2    1   22 1
     3    1   23 1
     4    1   24 1
     5    2    3 1
     6    2    8 1
     7    2    4 1
     8    4    5 1
     9    4   25 1
    10    4   26 1
    11    5    6 1
    12    5   27 1
    13    5   28 1
    14    6    7 1
    15    6   29 1
    16    6   30 1
    17    7    8 1
    18    7    9 1
    19    7   12 1
    20    8   31 1
    21    8   32 1
    22    9   10 2
    23    9   11 1
    24   12   13 am
    25   12   33 1
    26   13   14 2
    27   13   15 am
    28   15   16 1
    29   15   19 1
    30   16   17 1
    31   16   34 1
    32   16   35 1
    33   17   18 1
    34   17   36 1
    35   17   37 1
    36   18   38 1
    37   19   20 1
    38   19   39 1
    39   19   40 1
    40   20   21 1
    41   20   41 1
    42   20   42 1
    43   21   43 1
@<TRIPOS>MOLECULE
ZINC49147691
   33    33     0     0     0
SMALL
USER_CHARGES

@<TRIPOS>ATOM
      1 C1         -0.0187    1.5258    0.0104 C.3       1 <0>        -0.1583
      2 C2          0.0021   -0.0041    0.0020 C.3       1 <0>         0.2461
      3 H1          0.5123   -0.3556   -0.8948 H         1 <0>         0.1134
      4 C3         -1.4117   -0.5257    0.0127 C.2       1 <0>        -0.1315
      5 C4         -2.1568   -0.9920   -1.0186 C.2       1 <0>        -0.1465
      6 C5         -3.4470   -1.4244   -0.7724 C.2       1 <0>        -0.1298
      7 C6         -3.9280   -1.3685    0.4948 C.2       1 <0>        -0.1272
      8 S1         -2.5363   -0.6967    1.3887 S.3       1 <0>         0.0942
      9 Cl1        -5.4892   -1.8357    1.0931 Cl        1 <0>         0.0114
     10 N1          0.7106   -0.4894    1.1889 N.am      1 <0>        -0.7496
     11 C7          2.0538   -0.5998    1.1737 C.2       1 <0>         0.7083
     12 O1          2.6774   -0.2967    0.1749 O.2       1 <0>        -0.5878
     13 N2          2.7056   -1.0463    2.2656 N.am      1 <0>        -0.7109
     14 C8          4.1656   -1.1663    2.2490 C.3       1 <0>         0.0973
     15 H2          4.5896   -0.3607    1.6497 H         1 <0>         0.0847
     16 C9          4.7011   -1.0741    3.6793 C.3       1 <0>        -0.1104
     17 C10         4.4160    0.3198    4.2418 C.3       1 <0>         0.0786
     18 O2          4.9161    0.4059    5.5776 O.3       1 <0>        -0.5758
     19 C11         4.5537   -2.4944    1.6519 C.2       1 <0>         0.4928
     20 O3          5.6066   -2.6067    1.0476 O.co2     1 <0>        -0.6930
     21 O4          3.8148   -3.4566    1.7732 O.co2     1 <0>        -0.6890
     22 H3          1.0039    1.9031    0.0027 H         1 <0>         0.0747
     23 H4         -0.5459    1.8868   -0.8726 H         1 <0>         0.0678
     24 H5         -0.5289    1.8773    0.9072 H         1 <0>         0.0576
     25 H6         -1.7492   -1.0252   -2.0181 H         1 <0>         0.1456
     26 H7         -4.0622   -1.8003   -1.5765 H         1 <0>         0.1425
     27 H8          0.2131   -0.7312    1.9857 H         1 <0>         0.3911
     28 H9          2.2081   -1.2881    3.0624 H         1 <0>         0.3887
     29 H10         4.2104   -1.8238    4.3000 H         1 <0>         0.0719
     30 H11         5.7765   -1.2519    3.6768 H         1 <0>         0.0844
     31 H12         4.9067    1.0695    3.6211 H         1 <0>         0.0444
     32 H13         3.3406    0.4976    4.2443 H         1 <0>         0.0423
     33 H14         4.7698    1.2645    5.9978 H         1 <0>         0.3720
@<TRIPOS>BOND
     1    1    2 1
     2    1   22 1
     3    1   23 1
     4    1   24 1
     5    2    3 1
     6    2    4 1
     7    2   10 1
     8    4    8 1
     9    4    5 2
    10    5    6 1
    11    5   25 1
    12    6    7 2
    13    6   26 1
    14    7    8 1
    15    7    9 1
    16   10   11 am
    17   10   27 1
    18   11   12 2
    19   11   13 am
    20   13   14 1
    21   13   28 1
    22   14   15 1
    23   14   16 1
    24   14   19 1
    25   16   17 1
    26   16   29 1
    27   16   30 1
    28   17   18 1
    29   17   31 1
    30   17   32 1
    31   18   33 1
    32   19   20 2
    33   19   21 1
@<TRIPOS>MOLECULE
ZINC57212944
   39    39     0     0     0
SMALL
USER_CHARGES

@<TRIPOS>ATOM
      1 C1         -0.0184    1.5028    0.0103 C.3       1 <0>        -0.0879
      2 C2          0.0021   -0.0041    0.0020 C.ar      1 <0>        -0.2139
      3 C3          0.0057   -0.6868   -1.2043 C.ar      1 <0>        -0.0414
      4 C4          0.0238   -2.0661   -1.2263 C.ar      1 <0>        -0.2578
      5 C5          0.0387   -2.7812   -0.0349 C.ar      1 <0>         0.3308
      6 C6          0.0356   -2.0928    1.1881 C.ar      1 <0>        -0.2229
      7 C7          0.0228   -0.6955    1.1932 C.ar      1 <0>        -0.0377
      8 C8          0.0513   -2.8391    2.4594 C.2       1 <0>         0.5653
      9 O1          0.0669   -4.0550    2.4505 O.2       1 <0>        -0.5049
     10 N1          0.0482   -2.1738    3.6315 N.am      1 <0>        -0.7514
     11 C9          0.0638   -2.9154    4.8948 C.3       1 <0>         0.1264
     12 C10         0.0566   -1.9298    6.0650 C.3       1 <0>        -0.1168
     13 C11         0.0728   -2.7043    7.3844 C.3       1 <0>        -0.1391
     14 C12         0.0657   -1.7334    8.5369 C.2       1 <0>         0.5164
     15 O2          0.0493   -0.5396    8.3241 O.2       1 <0>        -0.5425
     16 N2          0.0776   -2.1919    9.8043 N.am      1 <0>        -0.8605
     17 N3          0.0561   -4.1697   -0.0544 N.2       1 <0>        -1.0384
     18 S1          0.0592   -4.9775   -1.5000 S.o2      1 <0>         2.5140
     19 O3         -1.1828   -4.6438   -2.1045 O.2       1 <0>        -1.0312
     20 O4          1.2863   -4.6127   -2.1167 O.2       1 <0>        -1.0312
     21 C13         0.0835   -6.7351   -1.0517 C.3       1 <0>        -0.6312
     22 H1          1.0042    1.8801    0.0026 H         1 <0>         0.0495
     23 H2         -0.5455    1.8639   -0.8728 H         1 <0>         0.0505
     24 H3         -0.5286    1.8543    0.9071 H         1 <0>         0.0508
     25 H4         -0.0062   -0.1355   -2.1329 H         1 <0>         0.1033
     26 H5          0.0261   -2.5906   -2.1704 H         1 <0>         0.1066
     27 H6          0.0243   -0.1583    2.1301 H         1 <0>         0.1049
     28 H7          0.0357   -1.2039    3.6386 H         1 <0>         0.3916
     29 H8         -0.8178   -3.5539    4.9522 H         1 <0>         0.0600
     30 H9          0.9620   -3.5310    4.9438 H         1 <0>         0.0600
     31 H10         0.9381   -1.2913    6.0076 H         1 <0>         0.0752
     32 H11        -0.8417   -1.3142    6.0161 H         1 <0>         0.0752
     33 H12        -0.8087   -3.3428    7.4417 H         1 <0>         0.0980
     34 H13         0.9711   -3.3198    7.4333 H         1 <0>         0.0980
     35 H14         0.0908   -3.1467    9.9745 H         1 <0>         0.4016
     36 H15         0.0731   -1.5670   10.5461 H         1 <0>         0.3992
     37 H16        -0.8007   -6.9714   -0.4597 H         1 <0>         0.1161
     38 H17         0.0867   -7.3411   -1.9578 H         1 <0>         0.0994
     39 H18         0.9791   -6.9489   -0.4685 H         1 <0>         0.1160
@<TRIPOS>BOND
     1    1    2 1
     2    1   22 1
     3    1   23 1
     4    1   24 1
     5    2    7 ar
     6    2    3 ar
     7    3    4 ar
     8    3   25 1
     9    4    5 ar
    10    4   26 1
    11    5    6 ar
    12    5   17 1
    13    6    7 ar
    14    6    8 1
    15    7   27 1
    16    8    9 2
    17    8   10 am
    18   10   11 1
    19   10   28 1
    20   11   12 1
    21   11   29 1
    22   11   30 1
    23   12   13 1
    24   12   31 1
    25   12   32 1
    26   13   14 1
    27   13   33 1
    28   13   34 1
    29   14   15 2
    30   14   16 am
    31   16   35 1
    32   16   36 1
    33   17   18 1
    34   18   19 2
    35   18   20 2
    36   18   21 1
    37   21   37 1
    38   21   38 1
    39   21   39 1
@<TRIPOS>MOLECULE
ZINC20258404
   34    35     0     0     0
SMALL
USER_CHARGES
(2R)-3-(1H-imidazol-4-yl)-2-[[(2R)-2-pyrazol-1-ylpropanoyl]amino]propanoic acid
@<TRIPOS>ATOM
      1 C1          0.6358    5.9540   -0.3040 C.3       1 <0>        -0.1592
      2 C2         -0.6191    5.6560   -1.1271 C.3       1 <0>         0.1438
      3 H1         -1.4941    6.1825   -0.7184 H         1 <0>         0.1205
      4 C3         -0.8743    4.1708   -1.1339 C.2       1 <0>         0.5036
      5 O1         -0.8918    3.5634   -2.1835 O.2       1 <0>        -0.5161
      6 N1         -1.0832    3.5176    0.0263 N.am      1 <0>        -0.7121
      7 C4         -1.3313    2.0738    0.0196 C.3       1 <0>         0.1062
      8 H2         -1.8968    1.8388   -0.8942 H         1 <0>         0.0933
      9 C5         -2.1226    1.6865    1.2706 C.3       1 <0>        -0.0386
     10 C6         -3.4864    2.3256    1.2201 C.2       1 <0>        -0.0372
     11 C7         -4.6658    1.6822    1.3132 C.2       1 <0>        -0.0206
     12 N2         -5.6447    2.6349    1.2241 N.2       1 <0>        -0.4991
     13 H3         -2.9064    4.3467    0.9685 H         1 <0>         0.4322
     14 C8         -5.0291    3.8270    1.0704 C.2       1 <0>         0.1651
     15 N3         -3.7385    3.6343    1.0690 N.pl3     1 <0>        -0.5251
     16 C9         -0.0161    1.3381    0.0094 C.2       1 <0>         0.4601
     17 O2          1.0219    1.9564    0.0028 O.co2     1 <0>        -0.6266
     18 O3          0.0021   -0.0041    0.0020 O.co2     1 <0>        -0.7592
     19 N4         -0.4242    6.1244   -2.5014 N.pl3     1 <0>        -0.3526
     20 C10         0.7376    6.1106   -3.1877 C.2       1 <0>         0.0741
     21 C11         0.4966    6.6222   -4.4170 C.2       1 <0>        -0.2798
     22 C12        -0.8568    6.9692   -4.4810 C.2       1 <0>         0.0447
     23 N5         -1.4098    6.6713   -3.3333 N.2       1 <0>        -0.2965
     24 H4          0.8221    7.0381   -0.2990 H         1 <0>         0.0758
     25 H5          1.4979    5.4358   -0.7492 H         1 <0>         0.0800
     26 H6          0.4895    5.6023    0.7279 H         1 <0>         0.0903
     27 H7         -1.0674    4.0685    0.9783 H         1 <0>         0.3995
     28 H8         -2.2315    0.5927    1.3115 H         1 <0>         0.1156
     29 H9         -1.5871    2.0354    2.1659 H         1 <0>         0.0773
     30 H10        -4.6859    0.6888    1.4264 H         1 <0>         0.1574
     31 H11        -5.5718    4.6622    0.9811 H         1 <0>         0.1870
     32 H12         1.6888    5.7527   -2.8222 H         1 <0>         0.1701
     33 H13         1.2222    6.7451   -5.2075 H         1 <0>         0.1455
     34 H14        -1.3587    7.4077   -5.3308 H         1 <0>         0.1807
@<TRIPOS>BOND
     1    1    2 1
     2    1   24 1
     3    1   25 1
     4    1   26 1
     5    2    3 1
     6    2    4 1
     7    2   19 1
     8    4    5 2
     9    4    6 am
    10    6    7 1
    11    6   27 1
    12    7    8 1
    13    7    9 1
    14    7   16 1
    15    9   10 1
    16    9   28 1
    17    9   29 1
    18   10   15 1
    19   10   11 2
    20   11   12 1
    21   11   30 1
    22   12   14 2
    23   13   15 1
    24   14   31 1
    25   14   15 1
    26   16   17 2
    27   16   18 1
    28   19   23 1
    29   19   20 1
    30   20   21 2
    31   20   32 1
    32   21   22 1
    33   21   33 1
    34   22   23 2
    35   22   34 1
@<TRIPOS>MOLECULE
ZINC40580224
   34    34     0     0     0
SMALL
USER_CHARGES

@<TRIPOS>ATOM
      1 C1         -0.0187    1.5258    0.0104 C.3       1 <0>        -0.1806
      2 C2          0.0021   -0.0041    0.0020 C.3       1 <0>         0.1097
      3 H1          0.5293   -0.3651    0.8851 H         1 <0>         0.0545
      4 C3         -1.4333   -0.5336    0.0129 C.3       1 <0>         0.0985
      5 H2         -1.9605   -0.1726   -0.8702 H         1 <0>         0.0881
      6 C4         -1.4129   -2.0405    0.0046 C.2       1 <0>         0.4976
      7 O1         -1.3945   -2.6557    1.0571 O.co2     1 <0>        -0.6982
      8 O2         -1.4147   -2.6444   -1.0546 O.co2     1 <0>        -0.6825
      9 N1         -2.1190   -0.0612    1.2182 N.am      1 <0>        -0.7055
     10 C5         -3.4622    0.0493    1.2298 C.2       1 <0>         0.7113
     11 O3         -4.1048   -0.2432    0.2400 O.2       1 <0>        -0.5910
     12 N2         -4.0930    0.4839    2.3387 N.am      1 <0>        -0.7425
     13 C6         -5.5531    0.6040    2.3513 C.3       1 <0>         0.1251
     14 C7         -6.0041    1.1070    3.6984 C.2       1 <0>         0.5172
     15 O4         -5.1865    1.3421    4.5628 O.2       1 <0>        -0.5331
     16 N3         -7.3160    1.2956    3.9426 N.am      1 <0>        -0.7015
     17 C8         -7.7545    1.7847    5.2521 C.3       1 <0>         0.0799
     18 C9         -8.9704    1.1078    5.8881 C.3       1 <0>        -0.1933
     19 C10        -9.0931    2.5226    5.3187 C.3       1 <0>        -0.1893
     20 O5          0.6709   -0.4649   -1.1737 O.3       1 <0>        -0.5412
     21 H3          1.0039    1.9031    0.0027 H         1 <0>         0.0527
     22 H4         -0.5459    1.8868   -0.8726 H         1 <0>         0.0616
     23 H5         -0.5289    1.8773    0.9072 H         1 <0>         0.0623
     24 H6         -1.6063    0.1721    2.0079 H         1 <0>         0.3891
     25 H7         -3.5804    0.7172    3.1284 H         1 <0>         0.4040
     26 H8         -5.8667    1.3052    1.5780 H         1 <0>         0.0964
     27 H9         -5.9995   -0.3718    2.1598 H         1 <0>         0.0978
     28 H10        -7.9700    1.1076    3.2513 H         1 <0>         0.4056
     29 H11        -6.9602    2.1220    5.9180 H         1 <0>         0.1387
     30 H12        -9.4440    0.2987    5.3322 H         1 <0>         0.0985
     31 H13        -8.9761    0.9996    6.9727 H         1 <0>         0.1024
     32 H14        -9.1796    3.3451    6.0286 H         1 <0>         0.1032
     33 H15        -9.6476    2.6442    4.3881 H         1 <0>         0.0982
     34 H16         1.5879   -0.1667   -1.2470 H         1 <0>         0.3661
@<TRIPOS>BOND
     1    1    2 1
     2    1   21 1
     3    1   22 1
     4    1   23 1
     5    2    3 1
     6    2    4 1
     7    2   20 1
     8    4    5 1
     9    4    6 1
    10    4    9 1
    11    6    7 2
    12    6    8 1
    13    9   10 am
    14    9   24 1
    15   10   11 2
    16   10   12 am
    17   12   13 1
    18   12   25 1
    19   13   14 1
    20   13   26 1
    21   13   27 1
    22   14   15 2
    23   14   16 am
    24   16   17 1
    25   16   28 1
    26   17   19 1
    27   17   18 1
    28   17   29 1
    29   18   19 1
    30   18   30 1
    31   18   31 1
    32   19   32 1
    33   19   33 1
    34   20   34 1
@<TRIPOS>MOLECULE
ZINC42537005
   31    30     0     0     0
SMALL
USER_CHARGES

@<TRIPOS>ATOM
      1 C1          0.9343   -0.5983   -0.9258 C.3       1 <0>        -0.1366
      2 C2          0.0470    0.1514    0.0699 C.3       1 <0>        -0.6146
      3 H1          0.0409    1.2132   -0.1767 H         1 <0>         0.1683
      4 C3          0.5863   -0.0373    1.4644 C.2       1 <0>         0.4885
      5 O1          0.1434   -0.9123    2.1701 O.2       1 <0>        -0.4780
      6 O2          1.5586    0.7668    1.9224 O.3       1 <0>        -0.3417
      7 C4          2.0222    0.5309    3.2534 C.3       1 <0>         0.0293
      8 S1         -1.6440   -0.4994   -0.0177 S.o2      1 <0>         2.6407
      9 O3         -2.2671   -0.0822   -1.2247 O.2       1 <0>        -0.9367
     10 O4         -1.6634   -1.8655    0.3730 O.2       1 <0>        -0.9227
     11 N1         -2.4680    0.2943    1.1795 N.pl3     1 <0>        -1.0982
     12 C5         -2.6494    1.7461    1.1054 C.3       1 <0>         0.0904
     13 C6         -3.7289    2.1673    2.0688 C.2       1 <0>         0.5020
     14 O5         -4.2915    1.3366    2.7502 O.2       1 <0>        -0.5485
     15 N2         -4.0693    3.4672    2.1732 N.am      1 <0>        -0.6930
     16 C7         -5.1188    3.8767    3.1097 C.3       1 <0>         0.0497
     17 C8         -5.3053    5.3702    3.0335 C.2       1 <0>         0.4906
     18 O6         -4.6247    6.0313    2.2678 O.co2     1 <0>        -0.6915
     19 O7         -6.1369    5.9174    3.7374 O.co2     1 <0>        -0.6864
     20 H2          1.9286   -0.1519   -0.9342 H         1 <0>         0.0920
     21 H3          1.0083   -1.6448   -0.6302 H         1 <0>         0.0817
     22 H4          0.4980   -0.5324   -1.9225 H         1 <0>         0.0906
     23 H5          1.1937    0.6457    3.9524 H         1 <0>         0.0677
     24 H6          2.4208   -0.4810    3.3254 H         1 <0>         0.0642
     25 H7          2.8057    1.2482    3.4977 H         1 <0>         0.1066
     26 H8         -2.8307   -0.2021    1.9299 H         1 <0>         0.4331
     27 H9         -1.7150    2.2428    1.3669 H         1 <0>         0.0923
     28 H10        -2.9378    2.0250    0.0919 H         1 <0>         0.1132
     29 H11        -3.6194    4.1317    1.6282 H         1 <0>         0.4104
     30 H12        -6.0532    3.3801    2.8482 H         1 <0>         0.0687
     31 H13        -4.8304    3.5978    4.1232 H         1 <0>         0.0679
@<TRIPOS>BOND
     1    1    2 1
     2    1   20 1
     3    1   21 1
     4    1   22 1
     5    2    3 1
     6    2    4 1
     7    2    8 1
     8    4    5 2
     9    4    6 1
    10    6    7 1
    11    7   23 1
    12    7   24 1
    13    7   25 1
    14    8    9 2
    15    8   10 2
    16    8   11 1
    17   11   12 1
    18   11   26 1
    19   12   13 1
    20   12   27 1
    21   12   28 1
    22   13   14 2
    23   13   15 am
    24   15   16 1
    25   15   29 1
    26   16   17 1
    27   16   30 1
    28   16   31 1
    29   17   18 2
    30   17   19 1
@<TRIPOS>MOLECULE
ZINC49539937
   29    29     0     0     0
SMALL
USER_CHARGES

@<TRIPOS>ATOM
      1 C1         -0.0158    1.3139    0.0093 C.2       1 <0>         0.0339
      2 C2          1.1859    1.9456    0.0012 C.2       1 <0>        -0.2321
      3 S1          2.2937    0.5453   -0.0169 S.3       1 <0>         0.1186
      4 C3          1.1295   -0.6703   -0.0123 C.2       1 <0>         0.0409
      5 N1          0.0021   -0.0041    0.0020 N.2       1 <0>        -0.5012
      6 C4          1.3347   -2.1632   -0.0223 C.3       1 <0>         0.2324
      7 N2          1.3881   -2.6396   -1.4067 N.am      1 <0>        -0.7487
      8 C5          1.5661   -3.9510   -1.6617 C.2       1 <0>         0.7087
      9 O1          1.6826   -4.7387   -0.7428 O.2       1 <0>        -0.5881
     10 N3          1.6152   -4.3892   -2.9353 N.am      1 <0>        -0.7101
     11 C6          1.8088   -5.8146   -3.2125 C.3       1 <0>         0.0972
     12 H1          2.4695   -6.2447   -2.4598 H         1 <0>         0.0851
     13 C7          2.4353   -5.9843   -4.5980 C.3       1 <0>        -0.1103
     14 C8          3.8396   -5.3771   -4.6005 C.3       1 <0>         0.0785
     15 O2          4.4248   -5.5355   -5.8945 O.3       1 <0>        -0.5759
     16 C9          0.4772   -6.5193   -3.1736 C.2       1 <0>         0.4924
     17 O3         -0.5388   -5.9201   -3.4820 O.co2     1 <0>        -0.6886
     18 O4          0.4160   -7.6886   -2.8337 O.co2     1 <0>        -0.6929
     19 H2         -0.9439    1.8660    0.0255 H         1 <0>         0.1732
     20 H3          1.4098    3.0021    0.0047 H         1 <0>         0.1966
     21 H4          2.2708   -2.4047    0.4813 H         1 <0>         0.0923
     22 H5          0.5075   -2.6472    0.4969 H         1 <0>         0.0992
     23 H6          1.2952   -2.0112   -2.1397 H         1 <0>         0.3943
     24 H7          1.5223   -3.7608   -3.6683 H         1 <0>         0.3889
     25 H8          2.4976   -7.0450   -4.8412 H         1 <0>         0.0847
     26 H9          1.8188   -5.4770   -5.3401 H         1 <0>         0.0718
     27 H10         3.7773   -4.3164   -4.3573 H         1 <0>         0.0424
     28 H11         4.4561   -5.8844   -3.8584 H         1 <0>         0.0447
     29 H12         5.3180   -5.1726   -5.9694 H         1 <0>         0.3719
@<TRIPOS>BOND
     1    1    5 1
     2    1    2 2
     3    1   19 1
     4    2    3 1
     5    2   20 1
     6    3    4 1
     7    4    5 2
     8    4    6 1
     9    6    7 1
    10    6   21 1
    11    6   22 1
    12    7    8 am
    13    7   23 1
    14    8    9 2
    15    8   10 am
    16   10   11 1
    17   10   24 1
    18   11   12 1
    19   11   13 1
    20   11   16 1
    21   13   14 1
    22   13   25 1
    23   13   26 1
    24   14   15 1
    25   14   27 1
    26   14   28 1
    27   15   29 1
    28   16   17 2
    29   16   18 1
@<TRIPOS>MOLECULE
ZINC54398971
   31    31     0     0     0
SMALL
USER_CHARGES

@<TRIPOS>ATOM
      1 C1         -0.0647    1.3567   -0.0009 C.3       1 <0>         0.0323
      2 O1         -0.0246   -0.0717   -0.0070 O.3       1 <0>        -0.3916
      3 C2          0.6534   -0.6389    1.1158 C.3       1 <0>         0.0646
      4 C3          0.6351   -2.1648    1.0052 C.3       1 <0>        -0.1100
      5 C4          1.3610   -2.7721    2.2073 C.3       1 <0>         0.0722
      6 H1          0.9145   -2.3977    3.1285 H         1 <0>         0.0904
      7 C5          1.2372   -4.2733    2.1631 C.2       1 <0>         0.4949
      8 O2          2.0768   -4.9373    1.5793 O.co2     1 <0>        -0.6845
      9 O3          0.2975   -4.8239    2.7110 O.co2     1 <0>        -0.6892
     10 N1          2.7766   -2.3973    2.1633 N.pl3     1 <0>        -0.6409
     11 C6          3.5185   -2.3603    3.3296 C.ar      1 <0>         0.4233
     12 C7          4.8991   -2.1063    3.2802 C.ar      1 <0>        -0.0840
     13 N2          5.6030   -2.0725    4.4079 N.ar      1 <0>        -0.3723
     14 C8          5.0053   -2.2768    5.5642 C.ar      1 <0>        -0.0532
     15 C9          3.6416   -2.5278    5.6137 C.ar      1 <0>         0.1476
     16 N3          2.9285   -2.5594    4.5026 N.ar      1 <0>        -0.4997
     17 C10         5.5659   -1.8782    1.9817 C.2       1 <0>         0.5970
     18 O4          4.9058   -1.8089    0.9633 O.2       1 <0>        -0.5446
     19 N4          6.9062   -1.7470    1.9263 N.am      1 <0>        -0.8375
     20 H2          0.9523    1.7488   -0.0076 H         1 <0>         0.0376
     21 H3         -0.5958    1.7090   -0.8851 H         1 <0>         0.0822
     22 H4         -0.5813    1.7018    0.8948 H         1 <0>         0.0377
     23 H5          1.6853   -0.2882    1.1323 H         1 <0>         0.0471
     24 H6          0.1518   -0.3352    2.0346 H         1 <0>         0.0476
     25 H7         -0.3968   -2.5155    0.9887 H         1 <0>         0.0876
     26 H8          1.1367   -2.4685    0.0864 H         1 <0>         0.0751
     27 H9          3.1934   -2.1751    1.3161 H         1 <0>         0.4240
     28 H10         5.5799   -2.2490    6.4783 H         1 <0>         0.1657
     29 H11         3.1600   -2.6940    6.5660 H         1 <0>         0.1689
     30 H12         7.4329   -1.8023    2.7390 H         1 <0>         0.4095
     31 H13         7.3440   -1.5972    1.0738 H         1 <0>         0.4019
@<TRIPOS>BOND
     1    1    2 1
     2    1   20 1
     3    1   21 1
     4    1   22 1
     5    2    3 1
     6    3    4 1
     7    3   23 1
     8    3   24 1
     9    4    5 1
    10    4   25 1
    11    4   26 1
    12    5    6 1
    13    5    7 1
    14    5   10 1
    15    7    8 2
    16    7    9 1
    17   10   11 1
    18   10   27 1
    19   11   16 ar
    20   11   12 ar
    21   12   13 ar
    22   12   17 1
    23   13   14 ar
    24   14   15 ar
    25   14   28 1
    26   15   16 ar
    27   15   29 1
    28   17   18 2
    29   17   19 am
    30   19   30 1
    31   19   31 1
@<TRIPOS>MOLECULE
ZINC20249863
   40    41     0     0     0
SMALL
USER_CHARGES
(2R)-2-[(2-cyclohexylacetyl)amino]-3-(1H-imidazol-4-yl)propanoic acid
@<TRIPOS>ATOM
      1 C1         -2.1660   -1.5565   -7.6415 C.2       1 <0>        -0.0232
      2 C2         -1.3246   -0.7976   -6.9136 C.2       1 <0>        -0.0336
      3 N1         -0.9905   -1.4874   -5.8129 N.pl3     1 <0>        -0.5247
      4 C3         -1.5884   -2.6472   -5.8338 C.2       1 <0>         0.1620
      5 N2         -2.3290   -2.7323   -6.9598 N.2       1 <0>        -0.5000
      6 H1         -0.3083   -1.0446   -5.0723 H         1 <0>         0.4347
      7 C4         -0.8474    0.5867   -7.2701 C.3       1 <0>        -0.0396
      8 C5         -1.1634    1.5466   -6.1214 C.3       1 <0>         0.1054
      9 H2         -2.2286    1.5015   -5.8506 H         1 <0>         0.0921
     10 C6         -0.7984    2.9517   -6.5261 C.2       1 <0>         0.4591
     11 O1          0.0232    3.5692   -5.8909 O.co2     1 <0>        -0.6266
     12 O2         -1.3861    3.5171   -7.5923 O.co2     1 <0>        -0.7632
     13 N3         -0.3903    1.1630   -4.9376 N.am      1 <0>        -0.7205
     14 C7         -0.8319    1.4939   -3.7080 C.2       1 <0>         0.5146
     15 O3         -1.8693    2.1092   -3.5815 O.2       1 <0>        -0.5337
     16 C8         -0.0366    1.0992   -2.4903 C.3       1 <0>        -0.1376
     17 C9         -0.7527    1.5927   -1.2315 C.3       1 <0>        -0.0677
     18 C10        -0.0127    1.0858    0.0080 C.3       1 <0>        -0.1143
     19 C11        -0.7288    1.5792    1.2668 C.3       1 <0>        -0.1178
     20 C12        -0.7496    3.1091    1.2752 C.3       1 <0>        -0.1199
     21 C13        -1.4896    3.6159    0.0357 C.3       1 <0>        -0.1174
     22 C14        -0.7734    3.1225   -1.2231 C.3       1 <0>        -0.1228
     23 H3         -2.5328   -1.2093   -8.5046 H         1 <0>         0.1570
     24 H4         -1.5723   -3.4098   -5.1871 H         1 <0>         0.1864
     25 H5          0.2387    0.5669   -7.4431 H         1 <0>         0.0757
     26 H6         -1.3580    0.9268   -8.1831 H         1 <0>         0.1134
     27 H7          0.5506    0.6049   -5.0523 H         1 <0>         0.3973
     28 H8          0.0575    0.0039   -2.4530 H         1 <0>         0.0831
     29 H9          0.9646    1.5516   -2.5438 H         1 <0>         0.0928
     30 H10        -1.7847    1.2121   -1.2237 H         1 <0>         0.0754
     31 H11         0.0022   -0.0141    0.0019 H         1 <0>         0.0586
     32 H12         1.0193    1.4665    0.0002 H         1 <0>         0.0615
     33 H13        -1.7608    1.1984    1.2746 H         1 <0>         0.0604
     34 H14        -0.1968    1.2148    2.1580 H         1 <0>         0.0575
     35 H15        -1.2645    3.4638    2.1802 H         1 <0>         0.0560
     36 H16         0.2824    3.4899    1.2674 H         1 <0>         0.0593
     37 H17        -2.5216    3.2351    0.0435 H         1 <0>         0.0598
     38 H18        -1.5046    4.7158    0.0418 H         1 <0>         0.0584
     39 H19         0.2586    3.5032   -1.2309 H         1 <0>         0.0540
     40 H20        -1.3053    3.4869   -2.1143 H         1 <0>         0.0882
@<TRIPOS>BOND
     1    1    5 1
     2    1    2 2
     3    1   23 1
     4    2    3 1
     5    2    7 1
     6    3    4 1
     7    3    6 1
     8    4    5 2
     9    4   24 1
    10    7    8 1
    11    7   25 1
    12    7   26 1
    13    8    9 1
    14    8   10 1
    15    8   13 1
    16   10   11 2
    17   10   12 1
    18   13   14 am
    19   13   27 1
    20   14   15 2
    21   14   16 1
    22   16   17 1
    23   16   28 1
    24   16   29 1
    25   17   22 1
    26   17   18 1
    27   17   30 1
    28   18   19 1
    29   18   31 1
    30   18   32 1
    31   19   20 1
    32   19   33 1
    33   19   34 1
    34   20   21 1
    35   20   35 1
    36   20   36 1
    37   21   22 1
    38   21   37 1
    39   21   38 1
    40   22   39 1
    41   22   40 1
@<TRIPOS>MOLECULE
ZINC37407449
   38    38     0     0     0
SMALL
USER_CHARGES

@<TRIPOS>ATOM
      1 C1         -0.0405    1.4655   -0.0129 C.3       1 <0>        -0.1093
      2 C2          0.2161   -0.0193    0.0094 C.ar      1 <0>        -0.1019
      3 C3          0.4369   -0.7005   -1.1722 C.ar      1 <0>        -0.0739
      4 C4          0.6725   -2.0635   -1.1522 C.ar      1 <0>        -0.0734
      5 C5          0.6875   -2.7474    0.0508 C.ar      1 <0>        -0.0746
      6 C6          0.4673   -2.0699    1.2341 C.ar      1 <0>        -0.1992
      7 C7          0.2365   -0.7019    1.2166 C.ar      1 <0>         0.1425
      8 O1          0.0255   -0.0325    2.3806 O.3       1 <0>        -0.2741
      9 C8         -0.0636   -0.8157    3.5725 C.3       1 <0>         0.0694
     10 H1         -0.5510   -1.7645    3.3482 H         1 <0>         0.0940
     11 C9          1.3423   -1.0803    4.1151 C.3       1 <0>        -0.1743
     12 C10        -0.8684   -0.0693    4.6051 C.2       1 <0>         0.5118
     13 O2         -1.3211    1.0255    4.3458 O.2       1 <0>        -0.5241
     14 N1         -1.0850   -0.6185    5.8167 N.am      1 <0>        -0.6814
     15 C11        -1.8674    0.1071    6.8205 C.3       1 <0>         0.0826
     16 H2         -2.6578    0.6721    6.3263 H         1 <0>         0.0929
     17 C12        -2.4893   -0.8897    7.8006 C.3       1 <0>         0.1062
     18 H3         -3.1423   -0.3588    8.4933 H         1 <0>         0.0663
     19 C13        -3.3039   -1.9268    7.0250 C.3       1 <0>        -0.1808
     20 O3         -1.4532   -1.5479    8.5322 O.3       1 <0>        -0.5451
     21 C14        -0.9668    1.0542    7.5709 C.2       1 <0>         0.4991
     22 O4         -1.4167    2.0927    8.0244 O.co2     1 <0>        -0.6996
     23 O5          0.2116    0.7819    7.7245 O.co2     1 <0>        -0.6762
     24 Cl1         0.9491   -2.9173   -2.6383 Cl        1 <0>        -0.0786
     25 H4          0.9068    1.9992    0.0641 H         1 <0>         0.0722
     26 H5         -0.5345    1.7349   -0.9464 H         1 <0>         0.0657
     27 H6         -0.6795    1.7365    0.8276 H         1 <0>         0.0808
     28 H7          0.4252   -0.1685   -2.1120 H         1 <0>         0.1380
     29 H8          0.8713   -3.8116    0.0643 H         1 <0>         0.1341
     30 H9          0.4787   -2.6041    2.1727 H         1 <0>         0.1405
     31 H10         1.2744   -1.6777    5.0243 H         1 <0>         0.0837
     32 H11         1.9244   -1.6202    3.3683 H         1 <0>         0.0690
     33 H12         1.8297   -0.1315    4.3394 H         1 <0>         0.0797
     34 H13        -0.7229   -1.4942    6.0240 H         1 <0>         0.3969
     35 H14        -4.0942   -1.4248    6.4670 H         1 <0>         0.0636
     36 H15        -2.6509   -2.4577    6.3323 H         1 <0>         0.0595
     37 H16        -3.7470   -2.6369    7.7233 H         1 <0>         0.0545
     38 H17        -1.7753   -2.1956    9.1739 H         1 <0>         0.3635
@<TRIPOS>BOND
     1    1    2 1
     2    1   25 1
     3    1   26 1
     4    1   27 1
     5    2    7 ar
     6    2    3 ar
     7    3    4 ar
     8    3   28 1
     9    4    5 ar
    10    4   24 1
    11    5    6 ar
    12    5   29 1
    13    6    7 ar
    14    6   30 1
    15    7    8 1
    16    8    9 1
    17    9   10 1
    18    9   11 1
    19    9   12 1
    20   11   31 1
    21   11   32 1
    22   11   33 1
    23   12   13 2
    24   12   14 am
    25   14   15 1
    26   14   34 1
    27   15   16 1
    28   15   17 1
    29   15   21 1
    30   17   18 1
    31   17   19 1
    32   17   20 1
    33   19   35 1
    34   19   36 1
    35   19   37 1
    36   20   38 1
    37   21   22 2
    38   21   23 1
@<TRIPOS>MOLECULE
ZINC42435105
   37    37     0     0     0
SMALL
USER_CHARGES

@<TRIPOS>ATOM
      1 C1         -0.0225    1.8097    0.0120 C.3       1 <0>        -0.1203
      2 S1          0.0021   -0.0041    0.0020 S.3       1 <0>        -0.2767
      3 C2          0.8734   -0.4227   -1.5329 C.3       1 <0>        -0.0712
      4 C3          0.9658   -1.9439   -1.6683 C.3       1 <0>        -0.0920
      5 C4          1.7007   -2.2970   -2.9630 C.3       1 <0>         0.1025
      6 H1          2.6705   -1.7997   -2.9775 H         1 <0>         0.0823
      7 C5          1.9001   -3.7889   -3.0366 C.2       1 <0>         0.4932
      8 O1          1.2781   -4.4476   -3.8525 O.co2     1 <0>        -0.6850
      9 O2          2.6834   -4.3373   -2.2801 O.co2     1 <0>        -0.6991
     10 N1          0.9071   -1.8531   -4.1116 N.am      1 <0>        -0.7150
     11 C6          1.5124   -1.5843   -5.2855 C.2       1 <0>         0.7199
     12 O3          2.7171   -1.7102   -5.3911 O.2       1 <0>        -0.5505
     13 N2          0.7823   -1.1760   -6.3422 N.am      1 <0>        -0.6372
     14 C7         -0.6783   -0.9759   -6.3516 C.3       1 <0>         0.0999
     15 C8         -0.9323    0.0377   -7.4952 C.3       1 <0>        -0.1293
     16 C9          0.1169   -0.4098   -8.5469 C.3       1 <0>        -0.1247
     17 C10         1.3114   -0.8503   -7.6747 C.3       1 <0>         0.1594
     18 H2          2.0356   -0.0393   -7.5979 H         1 <0>         0.0742
     19 C11         1.9726   -2.0860   -8.2884 C.3       1 <0>         0.0648
     20 O4          3.1348   -2.4299   -7.5313 O.3       1 <0>        -0.5263
     21 H3          1.0001    2.1870    0.0043 H         1 <0>         0.0733
     22 H4         -0.5497    2.1708   -0.8711 H         1 <0>         0.0721
     23 H5         -0.5327    2.1613    0.9088 H         1 <0>         0.0972
     24 H6          0.3274   -0.0147   -2.3835 H         1 <0>         0.0767
     25 H7          1.8772    0.0015   -1.5082 H         1 <0>         0.0794
     26 H8          1.5118   -2.3519   -0.8177 H         1 <0>         0.0904
     27 H9         -0.0380   -2.3681   -1.6931 H         1 <0>         0.0699
     28 H10        -0.0540   -1.7527   -4.0274 H         1 <0>         0.3820
     29 H11        -1.1887   -1.9166   -6.5581 H         1 <0>         0.0637
     30 H12        -1.0109   -0.5640   -5.3988 H         1 <0>         0.0679
     31 H13        -1.9447   -0.0609   -7.8869 H         1 <0>         0.0815
     32 H14        -0.7414    1.0580   -7.1625 H         1 <0>         0.0742
     33 H15        -0.2614   -1.2435   -9.1385 H         1 <0>         0.0774
     34 H16         0.3986    0.4241   -9.1897 H         1 <0>         0.0814
     35 H17         1.2699   -2.9191   -8.2738 H         1 <0>         0.0408
     36 H18         2.2599   -1.8710   -9.3176 H         1 <0>         0.0404
     37 H19         3.6056   -3.2061   -7.8642 H         1 <0>         0.3627
@<TRIPOS>BOND
     1    1    2 1
     2    1   21 1
     3    1   22 1
     4    1   23 1
     5    2    3 1
     6    3    4 1
     7    3   24 1
     8    3   25 1
     9    4    5 1
    10    4   26 1
    11    4   27 1
    12    5    6 1
    13    5    7 1
    14    5   10 1
    15    7    8 2
    16    7    9 1
    17   10   11 am
    18   10   28 1
    19   11   12 2
    20   11   13 am
    21   13   17 1
    22   13   14 1
    23   14   15 1
    24   14   29 1
    25   14   30 1
    26   15   16 1
    27   15   31 1
    28   15   32 1
    29   16   17 1
    30   16   33 1
    31   16   34 1
    32   17   18 1
    33   17   19 1
    34   19   20 1
    35   19   35 1
    36   19   36 1
    37   20   37 1
@<TRIPOS>MOLECULE
ZINC49238536
   38    38     0     0     0
SMALL
USER_CHARGES

@<TRIPOS>ATOM
      1 C1         -0.0187    1.5258    0.0104 C.3       1 <0>        -0.1401
      2 C2          0.0021   -0.0041    0.0020 C.3       1 <0>        -0.0210
      3 C3          0.7182   -0.4975   -1.2568 C.3       1 <0>        -0.1424
      4 C4          0.7309   -0.5033    1.2229 C.2       1 <0>         0.0961
      5 C5          2.0811   -0.6211    1.2424 C.2       1 <0>        -0.3044
      6 S1          2.3375   -1.2374    2.8984 S.3       1 <0>         0.2225
      7 C6          0.7264   -1.2794    3.3832 C.2       1 <0>         0.2859
      8 N1          0.0831   -0.8401    2.3232 N.2       1 <0>        -0.5710
      9 N2          0.2030   -1.6767    4.6081 N.am      1 <0>        -0.6262
     10 C7          1.0269   -2.0962    5.5888 C.2       1 <0>         0.7070
     11 O1          2.2279   -2.1272    5.4020 O.2       1 <0>        -0.5551
     12 N3          0.5194   -2.4814    6.7764 N.am      1 <0>        -0.6927
     13 C8          1.4149   -2.9375    7.8424 C.3       1 <0>         0.0967
     14 H1          2.2549   -3.4772    7.4052 H         1 <0>         0.0904
     15 C9          0.6502   -3.8648    8.7891 C.3       1 <0>        -0.0931
     16 C10         0.2367   -5.1320    8.0380 C.3       1 <0>        -0.0764
     17 S2         -0.6700   -6.2314    9.1604 S.3       1 <0>        -0.2721
     18 C11        -1.0829   -7.6665    8.1305 C.3       1 <0>        -0.1210
     19 C12         1.9280   -1.7471    8.6110 C.2       1 <0>         0.4923
     20 O2          1.4438   -0.6443    8.4215 O.co2     1 <0>        -0.6828
     21 O3          2.8272   -1.8868    9.4224 O.co2     1 <0>        -0.6897
     22 H2          1.0039    1.9031    0.0027 H         1 <0>         0.0561
     23 H3         -0.5459    1.8868   -0.8726 H         1 <0>         0.0581
     24 H4         -0.5289    1.8773    0.9072 H         1 <0>         0.0565
     25 H5         -1.0205   -0.3814    0.0098 H         1 <0>         0.0821
     26 H6          1.7408   -0.1202   -1.2645 H         1 <0>         0.0586
     27 H7          0.7330   -1.5874   -1.2628 H         1 <0>         0.0561
     28 H8          0.1910   -0.1364   -2.1398 H         1 <0>         0.0591
     29 H9          2.8028   -0.4028    0.4692 H         1 <0>         0.1874
     30 H10        -0.7552   -1.6520    4.7571 H         1 <0>         0.4163
     31 H11        -0.4388   -2.4567    6.9254 H         1 <0>         0.3938
     32 H12         1.2896   -4.1331    9.6300 H         1 <0>         0.0958
     33 H13        -0.2396   -3.3542    9.1576 H         1 <0>         0.0742
     34 H14        -0.4028   -4.8636    7.1971 H         1 <0>         0.0770
     35 H15         1.1264   -5.6425    7.6695 H         1 <0>         0.0811
     36 H16        -1.6946   -7.3448    7.2876 H         1 <0>         0.0728
     37 H17        -0.1654   -8.1238    7.7600 H         1 <0>         0.0740
     38 H18        -1.6366   -8.3931    8.7250 H         1 <0>         0.0983
@<TRIPOS>BOND
     1    1    2 1
     2    1   22 1
     3    1   23 1
     4    1   24 1
     5    2    3 1
     6    2    4 1
     7    2   25 1
     8    3   26 1
     9    3   27 1
    10    3   28 1
    11    4    8 1
    12    4    5 2
    13    5    6 1
    14    5   29 1
    15    6    7 1
    16    7    8 2
    17    7    9 1
    18    9   10 am
    19    9   30 1
    20   10   11 2
    21   10   12 am
    22   12   13 1
    23   12   31 1
    24   13   14 1
    25   13   15 1
    26   13   19 1
    27   15   16 1
    28   15   32 1
    29   15   33 1
    30   16   17 1
    31   16   34 1
    32   16   35 1
    33   17   18 1
    34   18   36 1
    35   18   37 1
    36   18   38 1
    37   19   20 2
    38   19   21 1
