@<TRIPOS>MOLECULE
1VSO-AT1
 38 38 0 0 0
SMALL
SF_CHARGES


@<TRIPOS>ATOM
1    N        41.8390    5.0010    5.1840  N.4        1 SUBUNIT     -0.4262
2    C        39.4930    5.8860    5.5700  C.3        1 SUBUNIT     -0.0185
3    O        41.0750    4.6780    2.6580  O.co2      1 SUBUNIT     -0.8382
4    C        40.3370    4.7540    4.9780  C.3        1 SUBUNIT      0.1744
5    C        40.0710    4.5890    3.4290  C.2        1 SUBUNIT      0.7773
6    O        38.8910    4.3770    3.0650  O.co2      1 SUBUNIT     -0.8382
7    O        39.4480    6.2390    9.2710  O.3        1 SUBUNIT     -0.0681
8    O        38.0380    3.8840    7.1560  O.3        1 SUBUNIT     -0.3925
9    N        38.6860    5.0620    9.0890  N.2        1 SUBUNIT     -0.3586
10   C        40.6750    8.0160    8.2000  C.3        1 SUBUNIT      0.0536
11   C        37.2820    2.9370    7.9810  C.3        1 SUBUNIT      0.1629
12   C        38.6710    4.8910    7.7880  C.2        1 SUBUNIT      0.4267
13   C        39.3920    5.8970    7.0660  C.2        1 SUBUNIT     -0.0721
14   C        39.8570    6.7270    8.0670  C.2        1 SUBUNIT      0.0841
15   C        39.7510    9.0910    8.8210  C.3        1 SUBUNIT     -0.0947
16   C        41.8670    7.7950    9.1260  C.3        1 SUBUNIT     -0.0947
17   C        41.1810    8.5560    6.8690  C.3        1 SUBUNIT     -0.0947
18   P        36.2720    1.9120    6.8820  P.3        1 SUBUNIT      0.9939
19   O        37.1590    1.1790    5.9410  O.2        1 SUBUNIT     -1.0131
20   O        35.4750    1.0470    7.8200  O.2        1 SUBUNIT     -1.0131
21   O        35.2950    2.8940    6.1530  O.2        1 SUBUNIT     -1.0131
22   H        42.1279    5.8595    4.7417  H          1 SUBUNIT      0.3118
23   H        42.3857    4.2508    4.7911  H          1 SUBUNIT      0.3118
24   H        42.0631    5.0670    6.1646  H          1 SUBUNIT      0.3118
25   H        39.9319    6.8399    5.2593  H          1 SUBUNIT      0.0486
26   H        38.4776    5.8029    5.1687  H          1 SUBUNIT      0.0486
27   H        40.0445    3.8501    5.5224  H          1 SUBUNIT      0.0332
28   H        38.0111    2.3466    8.5457  H          1 SUBUNIT      0.0320
29   H        36.6734    3.5266    8.6745  H          1 SUBUNIT      0.0320
30   H        38.8772    9.2716    8.1862  H          1 SUBUNIT      0.0592
31   H        40.2810   10.0415    8.9423  H          1 SUBUNIT      0.0592
32   H        39.3919    8.7777    9.8069  H          1 SUBUNIT      0.0592
33   H        41.5368    7.4940   10.1257  H          1 SUBUNIT      0.0592
34   H        42.4592    8.7103    9.2286  H          1 SUBUNIT      0.0592
35   H        42.5248    7.0101    8.7383  H          1 SUBUNIT      0.0592
36   H        41.8276    7.8267    6.3699  H          1 SUBUNIT      0.0592
37   H        41.7586    9.4752    7.0125  H          1 SUBUNIT      0.0592
38   H        40.3480    8.7836    6.1957  H          1 SUBUNIT      0.0592
@<TRIPOS>BOND
     1    1    4 1
     2    2    4 1
     3    2   13 1
     4    3    5 2
     5    4    5 1
     6    5    6 1
     7    7    9 1
     8    7   14 1
     9    8   11 1
    10    8   12 1
    11    9   12 2
    12   10   14 1
    13   10   15 1
    14   10   16 1
    15   10   17 1
    16   11   18 1
    17   12   13 1
    18   13   14 2
    19   18   19 2
    20   18   20 1
    21   18   21 1
    22    1   22 1
    23    1   23 1
    24    1   24 1
    25    2   25 1
    26    2   26 1
    27    4   27 1
    28   11   28 1
    29   11   29 1
    30   15   30 1
    31   15   31 1
    32   15   32 1
    33   16   33 1
    34   16   34 1
    35   16   35 1
    36   17   36 1
    37   17   37 1
    38   17   38 1
