@<TRIPOS>MOLECULE
CHEMBL323994
   35    38     0     0     0
SMALL
USER_CHARGES

@<TRIPOS>ATOM
      1 C1         -0.0559    0.7660    0.3985 C.2       1 <0>        -0.1992
      2 C2          1.2311    0.8206    0.9367 C.2       1 <0>        -0.1527
      3 C3          2.1192    0.6699   -0.1172 C.2       1 <0>        -0.0030
      4 N1          1.3736    0.5274   -1.2678 N.pl3     1 <0>        -0.5324
      5 H1          1.7299    0.4042   -2.1616 H         1 <0>         0.4140
      6 C4          0.0581    0.5875   -0.9412 C.2       1 <0>         0.0026
      7 C5          3.5266    0.6640   -0.0285 C.2       1 <0>         0.0521
      8 C6          4.2080   -0.5345    0.0629 C.2       1 <0>        -0.1378
      9 C7          5.6708   -0.7325    0.1725 C.ar      1 <0>        -0.1094
     10 C8          6.7482    0.1435    0.2154 C.ar      1 <0>        -0.0446
     11 C9          8.0405   -0.3606    0.3238 C.ar      1 <0>        -0.0674
     12 C10         8.2449   -1.7400    0.3884 C.ar      1 <0>        -0.0648
     13 C11         7.1763   -2.6080    0.3453 C.ar      1 <0>        -0.1347
     14 C12         5.8779   -2.1181    0.2375 C.ar      1 <0>         0.1588
     15 N2          4.6503   -2.7652    0.1753 N.am      1 <0>        -0.6565
     16 C13         3.6375   -1.8875    0.0789 C.2       1 <0>         0.5536
     17 O1          2.4533   -2.1656    0.0131 O.2       1 <0>        -0.4775
     18 C14         9.1987    0.5658    0.3700 C.ar      1 <0>        -0.0897
     19 C15        10.5013    0.0696    0.4729 C.ar      1 <0>        -0.0705
     20 C16        11.5475    0.9750    0.5119 C.ar      1 <0>        -0.1660
     21 C17        11.2730    2.3292    0.4484 C.ar      1 <0>         0.0966
     22 N3         10.0329    2.7677    0.3516 N.ar      1 <0>        -0.4796
     23 C18         9.0057    1.9440    0.3057 C.ar      1 <0>         0.1060
     24 H2         -0.9797    0.8470    0.9520 H         1 <0>         0.1373
     25 H3          1.4866    0.9552    1.9773 H         1 <0>         0.1367
     26 H4         -0.7651    0.5059   -1.6356 H         1 <0>         0.1649
     27 H5          4.0718    1.5963   -0.0319 H         1 <0>         0.1474
     28 H6          6.5836    1.2096    0.1646 H         1 <0>         0.1348
     29 H7          9.2486   -2.1296    0.4725 H         1 <0>         0.1361
     30 H8          7.3466   -3.6733    0.3958 H         1 <0>         0.1341
     31 H9          4.5381   -3.7283    0.2026 H         1 <0>         0.4196
     32 H10        10.6868   -0.9933    0.5211 H         1 <0>         0.1377
     33 H11        12.5671    0.6279    0.5914 H         1 <0>         0.1388
     34 H12        12.0868    3.0385    0.4790 H         1 <0>         0.1578
     35 H13         8.0048    2.3409    0.2220 H         1 <0>         0.1571
@<TRIPOS>BOND
     1    1    6 2
     2    1    2 1
     3    1   24 1
     4    2    3 2
     5    2   25 1
     6    3    4 1
     7    3    7 1
     8    4    5 1
     9    4    6 1
    10    6   26 1
    11    7    8 2
    12    7   27 1
    13    8   16 1
    14    8    9 1
    15    9   14 ar
    16    9   10 ar
    17   10   11 ar
    18   10   28 1
    19   11   12 ar
    20   11   18 1
    21   12   13 ar
    22   12   29 1
    23   13   14 ar
    24   13   30 1
    25   14   15 1
    26   15   16 am
    27   15   31 1
    28   16   17 2
    29   18   23 ar
    30   18   19 ar
    31   19   20 ar
    32   19   32 1
    33   20   21 ar
    34   20   33 1
    35   21   22 ar
    36   21   34 1
    37   22   23 ar
    38   23   35 1
@<TRIPOS>MOLECULE
CHEMBL1079594
   46    51     0     0     0
SMALL
USER_CHARGES

@<TRIPOS>ATOM
      1 C1         -0.0167    1.3784    0.0096 C.ar      1 <0>        -0.1207
      2 C2          1.1700    2.0851    0.0021 C.ar      1 <0>        -0.0786
      3 C3          2.3830    1.4164   -0.0149 C.ar      1 <0>        -0.1574
      4 C4          2.4068    0.0335   -0.0260 C.ar      1 <0>         0.1275
      5 C5          1.2087   -0.6771   -0.0151 C.ar      1 <0>         0.0740
      6 C6          0.0021   -0.0041    0.0020 C.ar      1 <0>        -0.1085
      7 F1          1.2266   -2.0280   -0.0218 F         1 <0>        -0.1271
      8 O1          3.5736   -0.6627   -0.0539 O.3       1 <0>        -0.3021
      9 C7          4.7718    0.0278    0.3030 C.3       1 <0>         0.0689
     10 C8          4.8222    1.3461   -0.4799 C.3       1 <0>        -0.1793
     11 C9          3.6563    2.2240   -0.0184 C.3       1 <0>         0.2105
     12 H1          3.8553    2.5916    0.9883 H         1 <0>         0.1281
     13 N1          3.5104    3.3603   -0.9314 N.am      1 <0>        -0.5100
     14 C10         3.6155    4.6938   -0.5826 C.ar      1 <0>         0.3854
     15 C11         3.4085    5.4358   -1.7535 C.ar      1 <0>        -0.0227
     16 C12         3.4603    6.8172   -1.6833 C.ar      1 <0>         0.2083
     17 N2          3.7038    7.3884   -0.5120 N.ar      1 <0>        -0.5138
     18 C13         3.8952    6.6596    0.5762 C.ar      1 <0>         0.5614
     19 N3          3.8538    5.3365    0.5517 N.ar      1 <0>        -0.5234
     20 N4          4.1481    7.3050    1.7855 N.pl3     1 <0>        -0.4231
     21 C14         4.3718    6.7078    2.9901 C.2       1 <0>         0.3091
     22 N5          4.5728    7.6101    3.9061 N.2       1 <0>        -0.4750
     23 C15         4.4929    8.8481    3.3571 C.ar      1 <0>         0.0811
     24 C16         4.2251    8.6728    1.9868 C.ar      1 <0>         0.0508
     25 C17         4.0946    9.7745    1.1606 C.ar      1 <0>        -0.0314
     26 C18         4.2334   11.0555    1.6944 C.ar      1 <0>        -0.0141
     27 C19         4.5038   11.2226    3.0594 C.ar      1 <0>        -0.0730
     28 C20         4.6250   10.1402    3.8782 C.ar      1 <0>        -0.0631
     29 C21         4.0998   12.2017    0.8465 C.1       1 <0>         0.2556
     30 N6          3.9939   13.1109    0.1738 N.1       1 <0>        -0.4077
     31 N7          3.1838    4.5187   -2.7764 N.am      1 <0>        -0.6246
     32 H2          3.0090    4.7339   -3.7059 H         1 <0>         0.4450
     33 C22         3.2572    3.2798   -2.2516 C.2       1 <0>         0.6923
     34 O2          3.1136    2.2451   -2.8755 O.2       1 <0>        -0.5102
     35 H3         -0.9591    1.9056    0.0260 H         1 <0>         0.1380
     36 H4          1.1520    3.1649    0.0091 H         1 <0>         0.1213
     37 H5         -0.9254   -0.5573    0.0098 H         1 <0>         0.1469
     38 H6          4.7706    0.2361    1.3729 H         1 <0>         0.0750
     39 H7          5.6375   -0.5836    0.0485 H         1 <0>         0.1228
     40 H8          5.7658    1.8548   -0.2824 H         1 <0>         0.0974
     41 H9          4.7297    1.1435   -1.5469 H         1 <0>         0.1009
     42 H10         3.3056    7.4188   -2.5668 H         1 <0>         0.1935
     43 H11         4.3809    5.6413    3.1596 H         1 <0>         0.2283
     44 H12         3.8869    9.6435    0.1089 H         1 <0>         0.1521
     45 H13         4.6105   12.2172    3.4666 H         1 <0>         0.1446
     46 H14         4.8347   10.2793    4.9284 H         1 <0>         0.1470
@<TRIPOS>BOND
     1    1    6 ar
     2    1    2 ar
     3    1   35 1
     4    2    3 ar
     5    2   36 1
     6    3   11 1
     7    3    4 ar
     8    4    5 ar
     9    4    8 1
    10    5    6 ar
    11    5    7 1
    12    6   37 1
    13    8    9 1
    14    9   10 1
    15    9   38 1
    16    9   39 1
    17   10   11 1
    18   10   40 1
    19   10   41 1
    20   11   12 1
    21   11   13 1
    22   13   33 am
    23   13   14 1
    24   14   19 ar
    25   14   15 ar
    26   15   16 ar
    27   15   31 1
    28   16   17 ar
    29   16   42 1
    30   17   18 ar
    31   18   19 ar
    32   18   20 1
    33   20   24 1
    34   20   21 1
    35   21   22 2
    36   21   43 1
    37   22   23 1
    38   23   28 ar
    39   23   24 ar
    40   24   25 ar
    41   25   26 ar
    42   25   44 1
    43   26   27 ar
    44   26   29 1
    45   27   28 ar
    46   27   45 1
    47   28   46 1
    48   29   30 3
    49   31   32 1
    50   31   33 am
    51   33   34 2
@<TRIPOS>MOLECULE
CHEMBL1080955
   58    62     0     0     0
SMALL
USER_CHARGES

@<TRIPOS>ATOM
      1 C1          0.4999   -2.7041    2.6531 C.3       1 <0>        -0.0710
      2 C2          0.5895   -1.4563    1.8128 C.2       1 <0>         0.2079
      3 N1          0.8689   -1.4158    0.5387 N.2       1 <0>        -0.4919
      4 C3          0.8614   -0.1401    0.1245 C.2       1 <0>        -0.0258
      5 C4          0.5662    0.6395    1.1821 C.2       1 <0>        -0.0576
      6 N2          0.3884   -0.1953    2.2522 N.pl3     1 <0>        -0.4525
      7 C5          0.0466    0.2047    3.6195 C.3       1 <0>         0.1432
      8 C6         -1.4503    0.1766    3.7917 C.ar      1 <0>        -0.0979
      9 C7         -2.2071    1.2739    3.4221 C.ar      1 <0>        -0.1043
     10 C8         -3.5782    1.2537    3.5772 C.ar      1 <0>        -0.0698
     11 C9         -4.2003    0.1247    4.1074 C.ar      1 <0>        -0.0492
     12 C10        -3.4327   -0.9781    4.4781 C.ar      1 <0>        -0.0877
     13 C11        -2.0628   -0.9486    4.3136 C.ar      1 <0>        -0.1046
     14 C12        -5.6734    0.0971    4.2769 C.ar      1 <0>         0.2586
     15 C13        -6.3049   -1.0286    4.8131 C.ar      1 <0>        -0.2756
     16 C14        -7.6812   -1.0085    4.9523 C.ar      1 <0>         0.1936
     17 N3         -8.3544    0.0676    4.5767 N.ar      1 <0>        -0.5565
     18 C15        -7.7294    1.1212    4.0713 C.ar      1 <0>         0.5668
     19 N4         -6.4137    1.1459    3.9260 N.ar      1 <0>        -0.5614
     20 N5         -8.4710    2.2272    3.6907 N.pl3     1 <0>        -0.6347
     21 C16        -9.8469    2.2712    3.9506 C.ar      1 <0>         0.1039
     22 C17       -10.3537    1.6940    5.1075 C.ar      1 <0>        -0.0589
     23 C18       -11.7098    1.7373    5.3638 C.ar      1 <0>        -0.1792
     24 C19       -12.5668    2.3585    4.4648 C.ar      1 <0>         0.2071
     25 C20       -12.0599    2.9361    3.3081 C.ar      1 <0>        -0.1788
     26 C21       -10.7032    2.8969    3.0543 C.ar      1 <0>        -0.0937
     27 N6        -13.9414    2.4020    4.7243 N.pl3     1 <0>        -0.6341
     28 C22       -14.8755    3.0050    3.7604 C.3       1 <0>         0.0869
     29 C23       -16.0152    2.0119    3.5055 C.3       1 <0>         0.0453
     30 O1        -16.5712    1.6022    4.7572 O.3       1 <0>        -0.3794
     31 C24       -15.6535    0.9090    5.6064 C.3       1 <0>         0.0453
     32 C25       -14.4959    1.8406    5.9663 C.3       1 <0>         0.0866
     33 H1         -0.5378   -3.0338    2.7044 H         1 <0>         0.0795
     34 H2          1.1087   -3.4889    2.2042 H         1 <0>         0.0914
     35 H3          0.8639   -2.4920    3.6584 H         1 <0>         0.0724
     36 H4          1.0577    0.2019   -0.8810 H         1 <0>         0.1695
     37 H5          0.4818    1.7162    1.1846 H         1 <0>         0.1730
     38 H6          0.5066   -0.4863    4.3259 H         1 <0>         0.1034
     39 H7          0.4149    1.2135    3.8057 H         1 <0>         0.1038
     40 H8         -1.7239    2.1483    3.0118 H         1 <0>         0.1277
     41 H9         -4.1681    2.1111    3.2887 H         1 <0>         0.1388
     42 H10        -3.9095   -1.8555    4.8894 H         1 <0>         0.1344
     43 H11        -1.4674   -1.8040    4.5966 H         1 <0>         0.1312
     44 H12        -5.7319   -1.8941    5.1113 H         1 <0>         0.1475
     45 H13        -8.2008   -1.8617    5.3627 H         1 <0>         0.1722
     46 H14        -8.0378    2.9714    3.2441 H         1 <0>         0.4211
     47 H15        -9.6872    1.2109    5.8066 H         1 <0>         0.1312
     48 H16       -12.1040    1.2878    6.2632 H         1 <0>         0.1247
     49 H17       -12.7264    3.4188    2.6087 H         1 <0>         0.1260
     50 H18       -10.3085    3.3494    2.1566 H         1 <0>         0.1242
     51 H19       -15.2798    3.9304    4.1707 H         1 <0>         0.0705
     52 H20       -14.3547    3.2138    2.8259 H         1 <0>         0.0923
     53 H21       -16.7874    2.4907    2.9034 H         1 <0>         0.1049
     54 H22       -15.6278    1.1411    2.9766 H         1 <0>         0.0558
     55 H23       -16.1655    0.5943    6.5157 H         1 <0>         0.1052
     56 H24       -15.2648    0.0342    5.0852 H         1 <0>         0.0556
     57 H25       -13.7239    1.2787    6.4920 H         1 <0>         0.0929
     58 H26       -14.8614    2.6467    6.6025 H         1 <0>         0.0702
@<TRIPOS>BOND
     1    1    2 1
     2    1   33 1
     3    1   34 1
     4    1   35 1
     5    2    6 1
     6    2    3 2
     7    3    4 1
     8    4    5 2
     9    4   36 1
    10    5    6 1
    11    5   37 1
    12    6    7 1
    13    7    8 1
    14    7   38 1
    15    7   39 1
    16    8   13 ar
    17    8    9 ar
    18    9   10 ar
    19    9   40 1
    20   10   11 ar
    21   10   41 1
    22   11   12 ar
    23   11   14 1
    24   12   13 ar
    25   12   42 1
    26   13   43 1
    27   14   19 ar
    28   14   15 ar
    29   15   16 ar
    30   15   44 1
    31   16   17 ar
    32   16   45 1
    33   17   18 ar
    34   18   19 ar
    35   18   20 1
    36   20   21 1
    37   20   46 1
    38   21   26 ar
    39   21   22 ar
    40   22   23 ar
    41   22   47 1
    42   23   24 ar
    43   23   48 1
    44   24   25 ar
    45   24   27 1
    46   25   26 ar
    47   25   49 1
    48   26   50 1
    49   27   32 1
    50   27   28 1
    51   28   29 1
    52   28   51 1
    53   28   52 1
    54   29   30 1
    55   29   53 1
    56   29   54 1
    57   30   31 1
    58   31   32 1
    59   31   55 1
    60   31   56 1
    61   32   57 1
    62   32   58 1
@<TRIPOS>MOLECULE
CHEMBL1080955__1
   59    63     0     0     0
SMALL
USER_CHARGES

@<TRIPOS>ATOM
      1 C1          0.4999   -2.7041    2.6531 C.3       1 <0>        -0.1165
      2 C2          0.5895   -1.4563    1.8128 C.cat     1 <0>         0.3146
      3 N1          0.8689   -1.4158    0.5387 N.pl3     1 <0>        -0.4785
      4 C3          0.8614   -0.1401    0.1245 C.2       1 <0>         0.0032
      5 C4          0.5662    0.6395    1.1821 C.2       1 <0>         0.0256
      6 N2          0.3884   -0.1953    2.2522 N.pl3     1 <0>        -0.4033
      7 C5          0.0466    0.2047    3.6195 C.3       1 <0>         0.1388
      8 C6         -1.4503    0.1766    3.7917 C.ar      1 <0>        -0.1338
      9 C7         -2.2071    1.2739    3.4221 C.ar      1 <0>        -0.0965
     10 C8         -3.5782    1.2537    3.5772 C.ar      1 <0>        -0.0710
     11 C9         -4.2003    0.1247    4.1074 C.ar      1 <0>        -0.0215
     12 C10        -3.4327   -0.9781    4.4781 C.ar      1 <0>        -0.0897
     13 C11        -2.0628   -0.9486    4.3136 C.ar      1 <0>        -0.1000
     14 C12        -5.6734    0.0971    4.2769 C.ar      1 <0>         0.2429
     15 C13        -6.3049   -1.0286    4.8131 C.ar      1 <0>        -0.2747
     16 C14        -7.6812   -1.0085    4.9523 C.ar      1 <0>         0.1982
     17 N3         -8.3544    0.0676    4.5767 N.ar      1 <0>        -0.5490
     18 C15        -7.7294    1.1212    4.0713 C.ar      1 <0>         0.5701
     19 N4         -6.4137    1.1459    3.9260 N.ar      1 <0>        -0.5613
     20 N5         -8.4710    2.2272    3.6907 N.pl3     1 <0>        -0.6302
     21 C16        -9.8469    2.2712    3.9506 C.ar      1 <0>         0.0939
     22 C17       -10.3537    1.6940    5.1075 C.ar      1 <0>        -0.0568
     23 C18       -11.7098    1.7373    5.3638 C.ar      1 <0>        -0.1805
     24 C19       -12.5668    2.3585    4.4648 C.ar      1 <0>         0.2130
     25 C20       -12.0599    2.9361    3.3081 C.ar      1 <0>        -0.1798
     26 C21       -10.7032    2.8969    3.0543 C.ar      1 <0>        -0.0899
     27 N6        -13.9414    2.4020    4.7243 N.pl3     1 <0>        -0.6324
     28 C22       -14.8755    3.0050    3.7604 C.3       1 <0>         0.0858
     29 C23       -16.0152    2.0119    3.5055 C.3       1 <0>         0.0453
     30 O1        -16.5712    1.6022    4.7572 O.3       1 <0>        -0.3780
     31 C24       -15.6535    0.9090    5.6064 C.3       1 <0>         0.0453
     32 C25       -14.4959    1.8406    5.9663 C.3       1 <0>         0.0856
     33 H1         -0.5377   -3.0339    2.7043 H         1 <0>         0.1217
     34 H2          1.1088   -3.4889    2.2043 H         1 <0>         0.1172
     35 H3          0.8638   -2.4920    3.6584 H         1 <0>         0.1161
     36 H4          1.0577    0.2019   -0.8810 H         1 <0>         0.2237
     37 H5          0.4818    1.7162    1.1846 H         1 <0>         0.2221
     38 H6          0.5066   -0.4863    4.3259 H         1 <0>         0.1272
     39 H7          0.4149    1.2135    3.8057 H         1 <0>         0.1340
     40 H8         -1.7239    2.1483    3.0118 H         1 <0>         0.1321
     41 H9         -4.1681    2.1111    3.2887 H         1 <0>         0.1454
     42 H10        -3.9095   -1.8555    4.8894 H         1 <0>         0.1409
     43 H11        -1.4674   -1.8040    4.5966 H         1 <0>         0.1335
     44 H12        -5.7319   -1.8941    5.1113 H         1 <0>         0.1473
     45 H13        -8.2008   -1.8617    5.3627 H         1 <0>         0.1749
     46 H14        -8.0378    2.9714    3.2441 H         1 <0>         0.4213
     47 H15        -9.6872    1.2109    5.8066 H         1 <0>         0.1300
     48 H16       -12.1040    1.2878    6.2632 H         1 <0>         0.1261
     49 H17       -12.7264    3.4188    2.6087 H         1 <0>         0.1276
     50 H18       -10.3085    3.3494    2.1565 H         1 <0>         0.1242
     51 H19       -15.2798    3.9304    4.1707 H         1 <0>         0.0724
     52 H20       -14.3547    3.2138    2.8259 H         1 <0>         0.0924
     53 H21       -16.7874    2.4907    2.9034 H         1 <0>         0.1062
     54 H22       -15.6278    1.1411    2.9766 H         1 <0>         0.0557
     55 H23       -16.1655    0.5943    6.5157 H         1 <0>         0.1064
     56 H24       -15.2648    0.0342    5.0852 H         1 <0>         0.0554
     57 H25       -13.7239    1.2787    6.4920 H         1 <0>         0.0928
     58 H26       -14.8614    2.6467    6.6025 H         1 <0>         0.0721
     59 H27         1.0529   -2.1867   -0.0206 H         1 <0>         0.4623
@<TRIPOS>BOND
     1    1    2 1
     2    1   33 1
     3    1   34 1
     4    1   35 1
     5    2    6 1
     6    2    3 2
     7    3    4 1
     8    3   59 1
     9    4    5 2
    10    4   36 1
    11    5    6 1
    12    5   37 1
    13    6    7 1
    14    7    8 1
    15    7   38 1
    16    7   39 1
    17    8   13 ar
    18    8    9 ar
    19    9   10 ar
    20    9   40 1
    21   10   11 ar
    22   10   41 1
    23   11   12 ar
    24   11   14 1
    25   12   13 ar
    26   12   42 1
    27   13   43 1
    28   14   19 ar
    29   14   15 ar
    30   15   16 ar
    31   15   44 1
    32   16   17 ar
    33   16   45 1
    34   17   18 ar
    35   18   19 ar
    36   18   20 1
    37   20   21 1
    38   20   46 1
    39   21   26 ar
    40   21   22 ar
    41   22   23 ar
    42   22   47 1
    43   23   24 ar
    44   23   48 1
    45   24   25 ar
    46   24   27 1
    47   25   26 ar
    48   25   49 1
    49   26   50 1
    50   27   32 1
    51   27   28 1
    52   28   29 1
    53   28   51 1
    54   28   52 1
    55   29   30 1
    56   29   53 1
    57   29   54 1
    58   30   31 1
    59   31   32 1
    60   31   55 1
    61   31   56 1
    62   32   57 1
    63   32   58 1
@<TRIPOS>MOLECULE
CHEMBL1078276
   58    61     0     0     0
SMALL
USER_CHARGES

@<TRIPOS>ATOM
      1 C1          0.9017    1.8776   -0.2927 C.3       1 <0>        -0.6368
      2 S1          0.9407    0.0653   -0.2267 S.o2      1 <0>         2.5294
      3 O1          2.2577   -0.3859    0.0583 O.2       1 <0>        -1.0249
      4 O2         -0.1684   -0.4214    0.5165 O.2       1 <0>        -1.0246
      5 N1          0.6540   -0.4236   -1.7827 N.2       1 <0>        -1.0854
      6 C2          0.6157   -1.7825   -2.0904 C.ar      1 <0>         0.3172
      7 C3          0.8129   -2.7271   -1.0887 C.ar      1 <0>        -0.2708
      8 C4          0.7756   -4.0708   -1.3906 C.ar      1 <0>        -0.0029
      9 C5          0.5398   -4.4837   -2.7021 C.ar      1 <0>        -0.2050
     10 C6          0.3423   -3.5345   -3.7051 C.ar      1 <0>        -0.0354
     11 C7          0.3748   -2.1919   -3.3976 C.ar      1 <0>        -0.1915
     12 C8          0.4996   -5.9282   -3.0293 C.ar      1 <0>         0.3075
     13 C9          0.2697   -6.3529   -4.3418 C.ar      1 <0>        -0.2777
     14 C10         0.2410   -7.7112   -4.5990 C.ar      1 <0>         0.1788
     15 N2          0.4304   -8.5633   -3.6035 N.ar      1 <0>        -0.5883
     16 C11         0.6463   -8.1332   -2.3689 C.ar      1 <0>         0.5494
     17 N3          0.6873   -6.8421   -2.0793 N.ar      1 <0>        -0.5668
     18 N4          0.8398   -9.0584   -1.3560 N.pl3     1 <0>        -0.6481
     19 C12         0.9216  -10.4206   -1.6599 C.ar      1 <0>         0.2293
     20 C13         1.5958  -10.8403   -2.7995 C.ar      1 <0>        -0.1126
     21 C14         1.6747  -12.1867   -3.0967 C.ar      1 <0>        -0.0738
     22 C15         1.0832  -13.1166   -2.2615 C.ar      1 <0>        -0.1981
     23 C16         0.4112  -12.7021   -1.1261 C.ar      1 <0>        -0.0669
     24 C17         0.3339  -11.3577   -0.8198 C.ar      1 <0>        -0.1544
     25 C18         1.1705  -14.5849   -2.5895 C.3       1 <0>         0.0512
     26 N5          2.3732  -15.1548   -1.9678 N.4       1 <0>        -0.3813
     27 C19         3.5670  -14.5434   -2.5641 C.3       1 <0>        -0.0127
     28 C20         4.8201  -15.0739   -1.8642 C.3       1 <0>        -0.1451
     29 C21         4.8861  -16.5947   -2.0310 C.3       1 <0>        -0.1383
     30 C22         3.6026  -17.2158   -1.4725 C.3       1 <0>        -0.1457
     31 C23         2.3946  -16.6060   -2.1869 C.3       1 <0>        -0.0069
     32 H1          1.6733    2.2330   -0.9757 H         1 <0>         0.1174
     33 H2         -0.0756    2.2074   -0.6454 H         1 <0>         0.1175
     34 H3          1.0839    2.2815    0.7032 H         1 <0>         0.1050
     35 H4          0.9958   -2.4069   -0.0736 H         1 <0>         0.1077
     36 H5          0.9291   -4.8040   -0.6126 H         1 <0>         0.1140
     37 H6          0.1596   -3.8519   -4.7212 H         1 <0>         0.1125
     38 H7          0.2176   -1.4567   -4.1730 H         1 <0>         0.1201
     39 H8          0.1178   -5.6367   -5.1357 H         1 <0>         0.1476
     40 H9          0.0655   -8.0732   -5.6013 H         1 <0>         0.1647
     41 H10         0.9184   -8.7611   -0.4361 H         1 <0>         0.4269
     42 H11         2.0574  -10.1145   -3.4526 H         1 <0>         0.1410
     43 H12         2.1987  -12.5137   -3.9827 H         1 <0>         0.1287
     44 H13        -0.0497  -13.4309   -0.4759 H         1 <0>         0.1299
     45 H14        -0.1869  -11.0350    0.0697 H         1 <0>         0.1357
     46 H15         0.2869  -15.0958   -2.2071 H         1 <0>         0.1326
     47 H16         1.2249  -14.7130   -3.6706 H         1 <0>         0.1311
     48 H17         3.6109  -14.7921   -3.6245 H         1 <0>         0.1260
     49 H18         3.5170  -13.4608   -2.4475 H         1 <0>         0.1336
     50 H19         5.7054  -14.6201   -2.3096 H         1 <0>         0.1098
     51 H20         4.7774  -14.8255   -0.8037 H         1 <0>         0.0862
     52 H21         4.9804  -16.8417   -3.0884 H         1 <0>         0.0805
     53 H22         5.7464  -16.9841   -1.4864 H         1 <0>         0.0915
     54 H23         3.6176  -18.2931   -1.6379 H         1 <0>         0.1094
     55 H24         3.5346  -17.0119   -0.4039 H         1 <0>         0.0863
     56 H25         1.4790  -17.0462   -1.7919 H         1 <0>         0.1283
     57 H26         2.4635  -16.8107   -3.2553 H         1 <0>         0.1268
     58 H27         2.3602  -14.9655   -0.9768 H         1 <0>         0.4207
@<TRIPOS>BOND
     1    1    2 1
     2    1   32 1
     3    1   33 1
     4    1   34 1
     5    2    3 2
     6    2    4 2
     7    2    5 1
     8    5    6 1
     9    6   11 ar
    10    6    7 ar
    11    7    8 ar
    12    7   35 1
    13    8    9 ar
    14    8   36 1
    15    9   10 ar
    16    9   12 1
    17   10   11 ar
    18   10   37 1
    19   11   38 1
    20   12   17 ar
    21   12   13 ar
    22   13   14 ar
    23   13   39 1
    24   14   15 ar
    25   14   40 1
    26   15   16 ar
    27   16   17 ar
    28   16   18 1
    29   18   19 1
    30   18   41 1
    31   19   24 ar
    32   19   20 ar
    33   20   21 ar
    34   20   42 1
    35   21   22 ar
    36   21   43 1
    37   22   23 ar
    38   22   25 1
    39   23   24 ar
    40   23   44 1
    41   24   45 1
    42   25   26 1
    43   25   46 1
    44   25   47 1
    45   26   31 1
    46   26   27 1
    47   26   58 1
    48   27   28 1
    49   27   48 1
    50   27   49 1
    51   28   29 1
    52   28   50 1
    53   28   51 1
    54   29   30 1
    55   29   52 1
    56   29   53 1
    57   30   31 1
    58   30   54 1
    59   30   55 1
    60   31   56 1
    61   31   57 1
@<TRIPOS>MOLECULE
CHEMBL1078277
   55    58     0     0     0
SMALL
USER_CHARGES

@<TRIPOS>ATOM
      1 C1          1.3811    1.7326    0.6419 C.3       1 <0>        -0.6374
      2 S1          1.2161   -0.0713    0.5458 S.o2      1 <0>         2.5273
      3 O1          2.1795   -0.6962    1.3829 O.2       1 <0>        -1.0258
      4 O2         -0.1539   -0.4419    0.6161 O.2       1 <0>        -1.0259
      5 N1          1.6804   -0.4596   -0.9956 N.2       1 <0>        -1.0898
      6 C2          1.6722   -1.7898   -1.4117 C.ar      1 <0>         0.3118
      7 C3          1.2685   -2.7896   -0.5332 C.ar      1 <0>        -0.2707
      8 C4          1.2596   -4.1052   -0.9423 C.ar      1 <0>        -0.0055
      9 C5          1.6559   -4.4341   -2.2388 C.ar      1 <0>        -0.1948
     10 C6          2.0605   -3.4296   -3.1182 C.ar      1 <0>        -0.0379
     11 C7          2.0624   -2.1147   -2.7066 C.ar      1 <0>        -0.1935
     12 C8          1.6477   -5.8482   -2.6810 C.ar      1 <0>         0.3019
     13 C9          2.0485   -6.1894   -3.9766 C.ar      1 <0>        -0.2889
     14 C10         2.0240   -7.5222   -4.3441 C.ar      1 <0>         0.1807
     15 N2          1.6250   -8.4292   -3.4658 N.ar      1 <0>        -0.5812
     16 C11         1.2504   -8.0778   -2.2443 C.ar      1 <0>         0.5597
     17 N3          1.2637   -6.8144   -1.8492 N.ar      1 <0>        -0.5721
     18 N4          0.8398   -9.0584   -1.3560 N.pl3     1 <0>        -0.6474
     19 C12         0.9336  -10.4073   -1.7115 C.ar      1 <0>         0.1803
     20 C13         2.0359  -10.8648   -2.4226 C.ar      1 <0>        -0.1075
     21 C14         2.1255  -12.1976   -2.7721 C.ar      1 <0>        -0.1010
     22 C15         1.1192  -13.0768   -2.4154 C.ar      1 <0>        -0.1378
     23 C16         0.0207  -12.6248   -1.7077 C.ar      1 <0>        -0.0633
     24 C17        -0.0721  -11.2940   -1.3495 C.ar      1 <0>        -0.1279
     25 C18        -1.0734  -13.5864   -1.3212 C.3       1 <0>         0.0973
     26 N5         -0.7727  -14.1672   -0.0058 N.3       1 <0>        -0.5311
     27 C19         0.4254  -15.0170   -0.0665 C.3       1 <0>         0.0143
     28 C20         0.7363  -15.5523    1.3337 C.3       1 <0>         0.0630
     29 O3         -0.4033  -16.2579    1.8327 O.3       1 <0>        -0.3875
     30 C21        -1.5879  -15.4600    1.9058 C.3       1 <0>         0.0635
     31 C22        -1.9223  -14.9237    0.5113 C.3       1 <0>         0.0171
     32 H1          2.4166    2.0135    0.4499 H         1 <0>         0.1161
     33 H2          0.7347    2.1968   -0.1029 H         1 <0>         0.1161
     34 H3          1.0912    2.0715    1.6365 H         1 <0>         0.1029
     35 H4          0.9621   -2.5346    0.4705 H         1 <0>         0.1060
     36 H5          0.9463   -4.8813   -0.2597 H         1 <0>         0.1151
     37 H6          2.3677   -3.6819   -4.1224 H         1 <0>         0.1122
     38 H7          2.3713   -1.3362   -3.3884 H         1 <0>         0.1176
     39 H8          2.3693   -5.4297   -4.6739 H         1 <0>         0.1431
     40 H9          2.3267   -7.8202   -5.3370 H         1 <0>         0.1617
     41 H10         0.4871   -8.8091   -0.4875 H         1 <0>         0.4215
     42 H11         2.8217  -10.1786   -2.7020 H         1 <0>         0.1282
     43 H12         2.9822  -12.5539   -3.3249 H         1 <0>         0.1218
     44 H13         1.1913  -14.1187   -2.6906 H         1 <0>         0.1150
     45 H14        -0.9281  -10.9425   -0.7926 H         1 <0>         0.1229
     46 H15        -2.0242  -13.0554   -1.2752 H         1 <0>         0.0844
     47 H16        -1.1370  -14.3819   -2.0636 H         1 <0>         0.0448
     48 H17         0.2455  -15.8519   -0.7437 H         1 <0>         0.0414
     49 H18         1.2700  -14.4302   -0.4276 H         1 <0>         0.0938
     50 H19         1.5898  -16.2284    1.2837 H         1 <0>         0.0974
     51 H20         0.9688  -14.7202    1.9982 H         1 <0>         0.0605
     52 H21        -2.4153  -16.0693    2.2695 H         1 <0>         0.0974
     53 H22        -1.4230  -14.6251    2.5869 H         1 <0>         0.0606
     54 H23        -2.7914  -14.2688    0.5720 H         1 <0>         0.0870
     55 H24        -2.1397  -15.7572   -0.1567 H         1 <0>         0.0425
@<TRIPOS>BOND
     1    1    2 1
     2    1   32 1
     3    1   33 1
     4    1   34 1
     5    2    3 2
     6    2    4 2
     7    2    5 1
     8    5    6 1
     9    6   11 ar
    10    6    7 ar
    11    7    8 ar
    12    7   35 1
    13    8    9 ar
    14    8   36 1
    15    9   10 ar
    16    9   12 1
    17   10   11 ar
    18   10   37 1
    19   11   38 1
    20   12   17 ar
    21   12   13 ar
    22   13   14 ar
    23   13   39 1
    24   14   15 ar
    25   14   40 1
    26   15   16 ar
    27   16   17 ar
    28   16   18 1
    29   18   19 1
    30   18   41 1
    31   19   24 ar
    32   19   20 ar
    33   20   21 ar
    34   20   42 1
    35   21   22 ar
    36   21   43 1
    37   22   23 ar
    38   22   44 1
    39   23   24 ar
    40   23   25 1
    41   24   45 1
    42   25   26 1
    43   25   46 1
    44   25   47 1
    45   26   31 1
    46   26   27 1
    47   27   28 1
    48   27   48 1
    49   27   49 1
    50   28   29 1
    51   28   50 1
    52   28   51 1
    53   29   30 1
    54   30   31 1
    55   30   52 1
    56   30   53 1
    57   31   54 1
    58   31   55 1
@<TRIPOS>MOLECULE
CHEMBL1078274
   50    53     0     0     0
SMALL
USER_CHARGES

@<TRIPOS>ATOM
      1 C1         -0.1377    1.4041    1.1810 C.3       1 <0>         0.0236
      2 O1         -0.1113   -0.0236    1.1246 O.3       1 <0>        -0.3061
      3 C2         -1.2859   -0.6525    0.8517 C.ar      1 <0>         0.0955
      4 C3         -2.4337    0.0883    0.6379 C.ar      1 <0>        -0.1475
      5 C4         -3.6365   -0.5596    0.3584 C.ar      1 <0>        -0.0318
      6 C5         -3.6777   -1.9519    0.2954 C.ar      1 <0>        -0.1078
      7 C6         -2.5302   -2.6867    0.5098 C.ar      1 <0>        -0.1120
      8 C7         -1.3318   -2.0430    0.7818 C.ar      1 <0>         0.0955
      9 O2         -0.2021   -2.7703    0.9861 O.3       1 <0>        -0.4851
     10 C8         -4.8693    0.2306    0.1291 C.ar      1 <0>         0.2607
     11 C9         -6.0816   -0.4093   -0.1463 C.ar      1 <0>        -0.2736
     12 C10        -7.2055    0.3695   -0.3533 C.ar      1 <0>         0.1936
     13 N1         -7.1016    1.6877   -0.2854 N.ar      1 <0>        -0.5568
     14 C11        -5.9395    2.2679   -0.0226 C.ar      1 <0>         0.5667
     15 N2         -4.8405    1.5602    0.1874 N.ar      1 <0>        -0.5631
     16 N3         -5.8741    3.6500    0.0391 N.pl3     1 <0>        -0.6365
     17 C12        -7.0459    4.4117   -0.0574 C.ar      1 <0>         0.1042
     18 C13        -8.2155    3.9655    0.5438 C.ar      1 <0>        -0.0563
     19 C14        -9.3704    4.7162    0.4487 C.ar      1 <0>        -0.1793
     20 C15        -9.3623    5.9177   -0.2476 C.ar      1 <0>         0.2082
     21 C16        -8.1925    6.3641   -0.8484 C.ar      1 <0>        -0.1790
     22 C17        -7.0364    5.6156   -0.7492 C.ar      1 <0>        -0.0920
     23 N4        -10.5331    6.6784   -0.3444 N.pl3     1 <0>        -0.6344
     24 C18       -10.5831    7.8887   -1.1798 C.3       1 <0>         0.0874
     25 C19       -11.8123    7.7966   -2.0911 C.3       1 <0>         0.0453
     26 O3        -12.9689    7.5260   -1.2956 O.3       1 <0>        -0.3794
     27 C20       -12.9228    6.2770   -0.6017 C.3       1 <0>         0.0452
     28 C21       -11.7521    6.2881    0.3815 C.3       1 <0>         0.0866
     29 H1          0.8614    1.7773    1.4061 H         1 <0>         0.1033
     30 H2         -0.4652    1.7996    0.2195 H         1 <0>         0.0576
     31 H3         -0.8293    1.7242    1.9603 H         1 <0>         0.0573
     32 H4         -2.3988    1.1666    0.6877 H         1 <0>         0.1466
     33 H5         -4.6084   -2.4552    0.0790 H         1 <0>         0.1378
     34 H6         -2.5637   -3.7651    0.4610 H         1 <0>         0.1440
     35 H7         -0.0554   -3.0182    1.9092 H         1 <0>         0.3908
     36 H8         -6.1390   -1.4866   -0.1964 H         1 <0>         0.1490
     37 H9         -8.1576   -0.0925   -0.5685 H         1 <0>         0.1721
     38 H10        -5.0170    4.0905    0.1491 H         1 <0>         0.4204
     39 H11        -8.2218    3.0311    1.0853 H         1 <0>         0.1277
     40 H12       -10.2802    4.3688    0.9157 H         1 <0>         0.1247
     41 H13        -8.1861    7.2984   -1.3899 H         1 <0>         0.1258
     42 H14        -6.1258    5.9646   -1.2132 H         1 <0>         0.1241
     43 H15       -10.6627    8.7705   -0.5440 H         1 <0>         0.0704
     44 H16        -9.6801    7.9534   -1.7868 H         1 <0>         0.0920
     45 H17       -11.9460    8.7411   -2.6185 H         1 <0>         0.1049
     46 H18       -11.6708    6.9925   -2.8132 H         1 <0>         0.0558
     47 H19       -13.8555    6.1281   -0.0576 H         1 <0>         0.1052
     48 H20       -12.7853    5.4672   -1.3183 H         1 <0>         0.0557
     49 H21       -11.6229    5.2933    0.8079 H         1 <0>         0.0929
     50 H22       -11.9514    7.0060    1.1771 H         1 <0>         0.0703
@<TRIPOS>BOND
     1    1    2 1
     2    1   29 1
     3    1   30 1
     4    1   31 1
     5    2    3 1
     6    3    8 ar
     7    3    4 ar
     8    4    5 ar
     9    4   32 1
    10    5    6 ar
    11    5   10 1
    12    6    7 ar
    13    6   33 1
    14    7    8 ar
    15    7   34 1
    16    8    9 1
    17    9   35 1
    18   10   15 ar
    19   10   11 ar
    20   11   12 ar
    21   11   36 1
    22   12   13 ar
    23   12   37 1
    24   13   14 ar
    25   14   15 ar
    26   14   16 1
    27   16   17 1
    28   16   38 1
    29   17   22 ar
    30   17   18 ar
    31   18   19 ar
    32   18   39 1
    33   19   20 ar
    34   19   40 1
    35   20   21 ar
    36   20   23 1
    37   21   22 ar
    38   21   41 1
    39   22   42 1
    40   23   28 1
    41   23   24 1
    42   24   25 1
    43   24   43 1
    44   24   44 1
    45   25   26 1
    46   25   45 1
    47   25   46 1
    48   26   27 1
    49   27   28 1
    50   27   47 1
    51   27   48 1
    52   28   49 1
    53   28   50 1
@<TRIPOS>MOLECULE
CHEMBL1078275
   55    58     0     0     0
SMALL
USER_CHARGES

@<TRIPOS>ATOM
      1 C1          1.3811    1.7326    0.6419 C.3       1 <0>        -0.6367
      2 S1          1.2161   -0.0713    0.5458 S.o2      1 <0>         2.5294
      3 O1          2.1795   -0.6962    1.3829 O.2       1 <0>        -1.0250
      4 O2         -0.1539   -0.4419    0.6161 O.2       1 <0>        -1.0253
      5 N1          1.6804   -0.4596   -0.9956 N.2       1 <0>        -1.0854
      6 C2          1.6722   -1.7898   -1.4117 C.ar      1 <0>         0.3170
      7 C3          1.2685   -2.7896   -0.5332 C.ar      1 <0>        -0.2712
      8 C4          1.2596   -4.1052   -0.9423 C.ar      1 <0>        -0.0034
      9 C5          1.6559   -4.4341   -2.2388 C.ar      1 <0>        -0.2043
     10 C6          2.0605   -3.4296   -3.1182 C.ar      1 <0>        -0.0355
     11 C7          2.0624   -2.1147   -2.7066 C.ar      1 <0>        -0.1913
     12 C8          1.6477   -5.8482   -2.6810 C.ar      1 <0>         0.3072
     13 C9          2.0485   -6.1894   -3.9766 C.ar      1 <0>        -0.2781
     14 C10         2.0240   -7.5222   -4.3441 C.ar      1 <0>         0.1801
     15 N2          1.6250   -8.4292   -3.4658 N.ar      1 <0>        -0.5889
     16 C11         1.2504   -8.0778   -2.2443 C.ar      1 <0>         0.5497
     17 N3          1.2637   -6.8144   -1.8492 N.ar      1 <0>        -0.5687
     18 N4          0.8398   -9.0584   -1.3560 N.pl3     1 <0>        -0.6500
     19 C12         0.9336  -10.4073   -1.7115 C.ar      1 <0>         0.1982
     20 C13         2.0359  -10.8648   -2.4226 C.ar      1 <0>        -0.0804
     21 C14         2.1255  -12.1976   -2.7721 C.ar      1 <0>        -0.0931
     22 C15         1.1192  -13.0768   -2.4154 C.ar      1 <0>        -0.1207
     23 C16         0.0207  -12.6248   -1.7077 C.ar      1 <0>        -0.1416
     24 C17        -0.0721  -11.2940   -1.3495 C.ar      1 <0>        -0.1361
     25 C18        -1.0734  -13.5864   -1.3212 C.3       1 <0>         0.0525
     26 N5         -0.7727  -14.1672   -0.0058 N.4       1 <0>        -0.3924
     27 C19        -0.8868  -13.1293    1.0506 C.3       1 <0>        -0.0059
     28 C20        -1.1082  -13.9589    2.3402 C.3       1 <0>        -0.1455
     29 C21        -2.0086  -15.1182    1.8552 C.3       1 <0>        -0.1446
     30 C22        -1.7731  -15.2017    0.3356 C.3       1 <0>        -0.0090
     31 H1          2.4166    2.0135    0.4499 H         1 <0>         0.1176
     32 H2          0.7347    2.1968   -0.1029 H         1 <0>         0.1175
     33 H3          1.0912    2.0715    1.6365 H         1 <0>         0.1049
     34 H4          0.9621   -2.5346    0.4705 H         1 <0>         0.1073
     35 H5          0.9463   -4.8813   -0.2597 H         1 <0>         0.1133
     36 H6          2.3677   -3.6819   -4.1224 H         1 <0>         0.1128
     37 H7          2.3713   -1.3362   -3.3884 H         1 <0>         0.1202
     38 H8          2.3693   -5.4297   -4.6739 H         1 <0>         0.1476
     39 H9          2.3267   -7.8202   -5.3370 H         1 <0>         0.1652
     40 H10         0.4871   -8.8091   -0.4875 H         1 <0>         0.4234
     41 H11         2.8217  -10.1786   -2.7020 H         1 <0>         0.1403
     42 H12         2.9822  -12.5539   -3.3249 H         1 <0>         0.1347
     43 H13         1.1913  -14.1187   -2.6906 H         1 <0>         0.1269
     44 H14        -0.9281  -10.9425   -0.7926 H         1 <0>         0.1291
     45 H15        -2.0242  -13.0554   -1.2752 H         1 <0>         0.1326
     46 H16        -1.1370  -14.3819   -2.0636 H         1 <0>         0.1348
     47 H17         0.0329  -12.5484    1.1200 H         1 <0>         0.1348
     48 H18        -1.7404  -12.4788    0.8602 H         1 <0>         0.1323
     49 H19        -0.1607  -14.3398    2.7213 H         1 <0>         0.0967
     50 H20        -1.6191  -13.3649    3.0980 H         1 <0>         0.1153
     51 H21        -1.7149  -16.0517    2.3354 H         1 <0>         0.1029
     52 H22        -3.0553  -14.8973    2.0642 H         1 <0>         0.1023
     53 H23        -2.7047  -15.0071   -0.1957 H         1 <0>         0.1299
     54 H24        -1.3916  -16.1883    0.0727 H         1 <0>         0.1304
     55 H25         0.1543  -14.5658   -0.0046 H         1 <0>         0.4260
@<TRIPOS>BOND
     1    1    2 1
     2    1   31 1
     3    1   32 1
     4    1   33 1
     5    2    3 2
     6    2    4 2
     7    2    5 1
     8    5    6 1
     9    6   11 ar
    10    6    7 ar
    11    7    8 ar
    12    7   34 1
    13    8    9 ar
    14    8   35 1
    15    9   10 ar
    16    9   12 1
    17   10   11 ar
    18   10   36 1
    19   11   37 1
    20   12   17 ar
    21   12   13 ar
    22   13   14 ar
    23   13   38 1
    24   14   15 ar
    25   14   39 1
    26   15   16 ar
    27   16   17 ar
    28   16   18 1
    29   18   19 1
    30   18   40 1
    31   19   24 ar
    32   19   20 ar
    33   20   21 ar
    34   20   41 1
    35   21   22 ar
    36   21   42 1
    37   22   23 ar
    38   22   43 1
    39   23   24 ar
    40   23   25 1
    41   24   44 1
    42   25   26 1
    43   25   45 1
    44   25   46 1
    45   26   30 1
    46   26   27 1
    47   26   55 1
    48   27   28 1
    49   27   47 1
    50   27   48 1
    51   28   29 1
    52   28   49 1
    53   28   50 1
    54   29   30 1
    55   29   51 1
    56   29   52 1
    57   30   53 1
    58   30   54 1
@<TRIPOS>MOLECULE
CHEMBL1081138
   49    53     0     0     0
SMALL
USER_CHARGES

@<TRIPOS>ATOM
      1 C1          1.0718   -0.2801   -0.6786 C.ar      1 <0>        -0.0594
      2 C2          2.1675    0.5588   -0.7257 C.ar      1 <0>        -0.1780
      3 C3          2.1080    1.8127   -0.1319 C.ar      1 <0>         0.2049
      4 C4          0.9465    2.2229    0.5093 C.ar      1 <0>        -0.1788
      5 C5         -0.1492    1.3839    0.5564 C.ar      1 <0>        -0.0956
      6 C6         -0.0896    0.1301   -0.0374 C.ar      1 <0>         0.1077
      7 N1         -1.2015   -0.7209    0.0101 N.pl3     1 <0>        -0.6365
      8 C7         -1.0215   -2.0905    0.1104 C.ar      1 <0>         0.5663
      9 N2          0.2025   -2.5702    0.2800 N.ar      1 <0>        -0.5624
     10 C8          0.4160   -3.8726    0.3804 C.ar      1 <0>         0.1914
     11 C9         -0.6574   -4.7422    0.3065 C.ar      1 <0>        -0.2810
     12 C10        -1.9363   -4.2075    0.1273 C.ar      1 <0>         0.2729
     13 N3         -2.0767   -2.8864    0.0398 N.ar      1 <0>        -0.5657
     14 C11        -3.1188   -5.0974    0.0414 C.ar      1 <0>        -0.0963
     15 C12        -2.9590   -6.4839    0.1458 C.ar      1 <0>        -0.0672
     16 C13        -4.0368   -7.3169    0.0694 C.ar      1 <0>        -0.1338
     17 C14        -5.3146   -6.7944   -0.1148 C.ar      1 <0>         0.1120
     18 C15        -5.4878   -5.4013   -0.2212 C.ar      1 <0>        -0.1219
     19 C16        -4.3841   -4.5537   -0.1367 C.ar      1 <0>        -0.0094
     20 C17        -6.9253   -5.1846   -0.4055 C.2       1 <0>        -0.1951
     21 C18        -7.5072   -6.3940   -0.4002 C.2       1 <0>         0.0478
     22 N4         -6.5606   -7.3669   -0.2277 N.pl3     1 <0>        -0.5936
     23 H1         -6.7412   -8.3193   -0.1905 H         1 <0>         0.4175
     24 N5          3.2187    2.6629   -0.1792 N.pl3     1 <0>        -0.6350
     25 C19         3.1436    4.0370    0.3417 C.3       1 <0>         0.0871
     26 C20         4.3259    4.2593    1.2918 C.3       1 <0>         0.0451
     27 O1          5.5386    3.8979    0.6266 O.3       1 <0>        -0.3798
     28 C21         5.6128    2.5201    0.2525 C.3       1 <0>         0.0454
     29 C22         4.4980    2.2069   -0.7457 C.3       1 <0>         0.0876
     30 H2          1.1165   -1.2535   -1.1443 H         1 <0>         0.1317
     31 H3          3.0709    0.2396   -1.2241 H         1 <0>         0.1239
     32 H4          0.9002    3.1979    0.9715 H         1 <0>         0.1252
     33 H5         -1.0524    1.7028    1.0554 H         1 <0>         0.1239
     34 H6         -2.0973   -0.3509   -0.0274 H         1 <0>         0.4207
     35 H7          1.4176   -4.2524    0.5181 H         1 <0>         0.1694
     36 H8         -0.5106   -5.8092    0.3850 H         1 <0>         0.1460
     37 H9         -1.9720   -6.8988    0.2881 H         1 <0>         0.1328
     38 H10        -3.8987   -8.3848    0.1516 H         1 <0>         0.1258
     39 H11        -4.5116   -3.4839   -0.2132 H         1 <0>         0.1370
     40 H12        -7.4220   -4.2329   -0.5229 H         1 <0>         0.1495
     41 H13        -8.5661   -6.5729   -0.5149 H         1 <0>         0.1730
     42 H14         3.1980    4.7462   -0.4843 H         1 <0>         0.0700
     43 H15         2.2072    4.1739    0.8826 H         1 <0>         0.0924
     44 H16         4.3682    5.3094    1.5809 H         1 <0>         0.1044
     45 H17         4.1999    3.6410    2.1806 H         1 <0>         0.0557
     46 H18         6.5809    2.3189   -0.2061 H         1 <0>         0.1050
     47 H19         5.4915    1.8955    1.1375 H         1 <0>         0.0554
     48 H20         4.4581    1.1324   -0.9246 H         1 <0>         0.0925
     49 H21         4.6911    2.7287   -1.6830 H         1 <0>         0.0694
@<TRIPOS>BOND
     1    1    6 ar
     2    1    2 ar
     3    1   30 1
     4    2    3 ar
     5    2   31 1
     6    3    4 ar
     7    3   24 1
     8    4    5 ar
     9    4   32 1
    10    5    6 ar
    11    5   33 1
    12    6    7 1
    13    7    8 1
    14    7   34 1
    15    8   13 ar
    16    8    9 ar
    17    9   10 ar
    18   10   11 ar
    19   10   35 1
    20   11   12 ar
    21   11   36 1
    22   12   13 ar
    23   12   14 1
    24   14   19 ar
    25   14   15 ar
    26   15   16 ar
    27   15   37 1
    28   16   17 ar
    29   16   38 1
    30   17   22 1
    31   17   18 ar
    32   18   19 ar
    33   18   20 1
    34   19   39 1
    35   20   21 2
    36   20   40 1
    37   21   22 1
    38   21   41 1
    39   22   23 1
    40   24   29 1
    41   24   25 1
    42   25   26 1
    43   25   42 1
    44   25   43 1
    45   26   27 1
    46   26   44 1
    47   26   45 1
    48   27   28 1
    49   28   29 1
    50   28   46 1
    51   28   47 1
    52   29   48 1
    53   29   49 1
@<TRIPOS>MOLECULE
CHEMBL1081484
   63    67     0     0     0
SMALL
USER_CHARGES

@<TRIPOS>ATOM
      1 C1         -3.9275   -4.3296   -2.6554 C.3       1 <0>         0.0242
      2 O1         -2.6299   -3.8688   -2.2732 O.3       1 <0>        -0.2973
      3 C2         -2.5517   -2.6238   -1.7316 C.ar      1 <0>         0.1754
      4 C3         -3.7006   -1.8661   -1.5669 C.ar      1 <0>        -0.2395
      5 C4         -3.6210   -0.5953   -1.0135 C.ar      1 <0>         0.2408
      6 C5         -2.3909   -0.0824   -0.6247 C.ar      1 <0>        -0.2614
      7 C6         -1.2411   -0.8389   -0.7888 C.ar      1 <0>         0.1744
      8 C7         -1.3206   -2.1132   -1.3378 C.ar      1 <0>         0.0140
      9 O2         -0.1922   -2.8591   -1.4945 O.3       1 <0>        -0.3098
     10 C8          0.5115   -2.7192   -2.7304 C.3       1 <0>         0.0340
     11 O3         -0.0362   -0.3364   -0.4078 O.3       1 <0>        -0.2971
     12 C9         -0.0296    0.9775    0.1539 C.3       1 <0>         0.0230
     13 N1         -4.7819    0.1697   -0.8479 N.pl3     1 <0>        -0.6136
     14 C10        -5.9942   -0.4529   -0.6462 C.2       1 <0>         0.4946
     15 N2         -6.1566   -1.7393   -0.4688 N.2       1 <0>        -0.5112
     16 C11        -7.4839   -1.9923   -0.3016 C.ar      1 <0>         0.0574
     17 C12        -8.2219   -3.1568   -0.0806 C.ar      1 <0>        -0.0643
     18 C13        -9.5929   -3.0898    0.0511 C.ar      1 <0>        -0.1058
     19 C14       -10.2489   -1.8747   -0.0337 C.ar      1 <0>        -0.0855
     20 C15        -9.5307   -0.7019   -0.2537 C.ar      1 <0>        -0.0212
     21 C16        -8.1415   -0.7579   -0.3886 C.ar      1 <0>         0.0157
     22 O4         -7.1836    0.1728   -0.5970 O.3       1 <0>        -0.2211
     23 C17       -10.2363    0.5980   -0.3441 C.ar      1 <0>         0.0037
     24 C18        -9.7920    1.6863    0.4095 C.ar      1 <0>        -0.1133
     25 C19       -10.4381    2.8866    0.3303 C.ar      1 <0>        -0.0595
     26 C20       -11.5489    3.0319   -0.5059 C.ar      1 <0>        -0.1631
     27 C21       -11.9991    1.9444   -1.2639 C.ar      1 <0>         0.1538
     28 C22       -11.3395    0.7343   -1.1857 C.ar      1 <0>        -0.1408
     29 F1        -13.0724    2.0802   -2.0730 F         1 <0>        -0.1202
     30 C23       -12.2461    4.3294   -0.5892 C.2       1 <0>         0.5656
     31 O5        -13.4501    4.3841   -0.4279 O.2       1 <0>        -0.5167
     32 N3        -11.5486    5.4541   -0.8440 N.am      1 <0>        -0.6096
     33 C24       -10.0824    5.4250   -0.9656 C.3       1 <0>         0.0630
     34 C25        -9.6910    6.1352   -2.2665 C.3       1 <0>         0.0465
     35 O6        -10.3054    7.4255   -2.3016 O.3       1 <0>        -0.3765
     36 C26       -11.7346    7.3933   -2.3080 C.3       1 <0>         0.0470
     37 C27       -12.2312    6.7465   -1.0148 C.3       1 <0>         0.0769
     38 H1         -3.8483   -5.3338   -3.0719 H         1 <0>         0.1037
     39 H2         -4.5782   -4.3492   -1.7811 H         1 <0>         0.0646
     40 H3         -4.3457   -3.6575   -3.4046 H         1 <0>         0.0546
     41 H4         -4.6579   -2.2642   -1.8694 H         1 <0>         0.1572
     42 H5         -2.3297    0.9063   -0.1947 H         1 <0>         0.1409
     43 H6          1.3884   -3.3666   -2.7245 H         1 <0>         0.0928
     44 H7         -0.1430   -3.0014   -3.5551 H         1 <0>         0.0442
     45 H8          0.8259   -1.6829   -2.8542 H         1 <0>         0.0440
     46 H9         -0.4254    1.6858   -0.5738 H         1 <0>         0.0578
     47 H10        -0.6498    0.9926    1.0502 H         1 <0>         0.0590
     48 H11         0.9916    1.2563    0.4140 H         1 <0>         0.1050
     49 H12        -4.7327    1.1380   -0.8752 H         1 <0>         0.4300
     50 H13        -7.7189   -4.1102   -0.0132 H         1 <0>         0.1398
     51 H14       -10.1593   -3.9935    0.2216 H         1 <0>         0.1437
     52 H15       -11.3232   -1.8354    0.0708 H         1 <0>         0.1449
     53 H16        -8.9347    1.5782    1.0573 H         1 <0>         0.1364
     54 H17       -10.0905    3.7254    0.9152 H         1 <0>         0.1421
     55 H18       -11.6799   -0.1063   -1.7721 H         1 <0>         0.1497
     56 H19        -9.6333    5.9402   -0.1166 H         1 <0>         0.0844
     57 H20        -9.7368    4.3916   -0.9932 H         1 <0>         0.1005
     58 H21        -8.6075    6.2466   -2.3087 H         1 <0>         0.1097
     59 H22       -10.0307    5.5469   -3.1189 H         1 <0>         0.0574
     60 H23       -12.1214    8.4098   -2.3801 H         1 <0>         0.1119
     61 H24       -12.0818    6.8096   -3.1606 H         1 <0>         0.0575
     62 H25       -13.3079    6.5879   -1.0750 H         1 <0>         0.1047
     63 H26       -12.0021    7.3971   -0.1708 H         1 <0>         0.0812
@<TRIPOS>BOND
     1    1    2 1
     2    1   38 1
     3    1   39 1
     4    1   40 1
     5    2    3 1
     6    3    8 ar
     7    3    4 ar
     8    4    5 ar
     9    4   41 1
    10    5    6 ar
    11    5   13 1
    12    6    7 ar
    13    6   42 1
    14    7    8 ar
    15    7   11 1
    16    8    9 1
    17    9   10 1
    18   10   43 1
    19   10   44 1
    20   10   45 1
    21   11   12 1
    22   12   46 1
    23   12   47 1
    24   12   48 1
    25   13   14 1
    26   13   49 1
    27   14   22 1
    28   14   15 2
    29   15   16 1
    30   16   21 ar
    31   16   17 ar
    32   17   18 ar
    33   17   50 1
    34   18   19 ar
    35   18   51 1
    36   19   20 ar
    37   19   52 1
    38   20   21 ar
    39   20   23 1
    40   21   22 1
    41   23   28 ar
    42   23   24 ar
    43   24   25 ar
    44   24   53 1
    45   25   26 ar
    46   25   54 1
    47   26   27 ar
    48   26   30 1
    49   27   28 ar
    50   27   29 1
    51   28   55 1
    52   30   31 2
    53   30   32 am
    54   32   37 1
    55   32   33 1
    56   33   34 1
    57   33   56 1
    58   33   57 1
    59   34   35 1
    60   34   58 1
    61   34   59 1
    62   35   36 1
    63   36   37 1
    64   36   60 1
    65   36   61 1
    66   37   62 1
    67   37   63 1
@<TRIPOS>MOLECULE
CHEMBL232147
   67    71     0     0     0
SMALL
USER_CHARGES

@<TRIPOS>ATOM
      1 C1         -0.8481   -0.9871   -0.6365 C.3       1 <0>        -0.1651
      2 C2         -0.8433   -2.3312    0.0946 C.3       1 <0>         0.1162
      3 H1         -1.8499   -2.5569    0.4466 H         1 <0>         0.1016
      4 C3         -0.3794   -3.4308   -0.8628 C.3       1 <0>         0.1211
      5 C4         -0.3746   -4.7748   -0.1318 C.3       1 <0>        -0.1828
      6 C5         -1.3332   -3.5031   -2.0570 C.3       1 <0>        -0.1441
      7 O1          0.9402   -3.1349   -1.3244 O.3       1 <0>        -0.5442
      8 N1          0.0699   -2.2619    1.2380 N.pl3     1 <0>        -0.6744
      9 C6         -0.3717   -1.7575    2.4441 C.ar      1 <0>         0.5449
     10 C7          0.4951   -1.6778    3.5538 C.ar      1 <0>        -0.2478
     11 C8          1.8449   -2.0174    3.7761 C.2       1 <0>        -0.1073
     12 C9          2.1393   -1.7084    5.0688 C.2       1 <0>         0.0397
     13 N2          1.0102   -1.1806    5.6741 N.pl3     1 <0>        -0.4101
     14 C10        -0.0074   -1.1536    4.7628 C.ar      1 <0>         0.3651
     15 N3         -1.2768   -0.7556    4.8090 N.ar      1 <0>        -0.5623
     16 C11        -2.0531   -0.8490    3.7435 C.ar      1 <0>         0.5772
     17 N4         -1.6211   -1.3306    2.5855 N.ar      1 <0>        -0.6000
     18 N5         -3.3733   -0.4206    3.8386 N.pl3     1 <0>        -0.3521
     19 C12        -3.9751    0.1078    4.9425 C.cat     1 <0>         0.4261
     20 N6         -5.2162    0.4004    4.6784 N.pl3     1 <0>        -0.4837
     21 C13        -5.4972    0.0822    3.3932 C.ar      1 <0>         0.0861
     22 C14        -4.3185   -0.4454    2.8301 C.ar      1 <0>         0.0290
     23 C15        -4.3293   -0.8509    1.5064 C.ar      1 <0>         0.1886
     24 N7         -5.4293   -0.7399    0.7873 N.ar      1 <0>        -0.4377
     25 C16        -6.5511   -0.2471    1.2837 C.ar      1 <0>         0.1352
     26 C17        -6.6337    0.1711    2.5823 C.ar      1 <0>        -0.1265
     27 C18         0.9216   -0.7268    7.0643 C.3       1 <0>         0.0633
     28 C19         3.4417   -1.9027    5.7164 C.2       1 <0>         0.5830
     29 O2          3.5056   -2.0477    6.9229 O.2       1 <0>        -0.5243
     30 N8          4.5670   -1.9205    4.9749 N.am      1 <0>        -0.5942
     31 C20         4.5335   -1.5823    3.5439 C.3       1 <0>         0.0895
     32 C21         5.6048   -0.5216    3.2693 C.3       1 <0>         0.0381
     33 N9          6.9022   -1.0010    3.7641 N.3       1 <0>        -0.5424
     34 C22         6.8800   -1.1907    5.2206 C.3       1 <0>         0.0383
     35 C23         5.8620   -2.2729    5.5766 C.3       1 <0>         0.1174
     36 C24         7.9855   -0.0912    3.3681 C.3       1 <0>         0.0231
     37 H2          0.1585   -0.7614   -0.9886 H         1 <0>         0.0705
     38 H3         -1.5276   -1.0387   -1.4872 H         1 <0>         0.0798
     39 H4         -1.1786   -0.2037    0.0456 H         1 <0>         0.0581
     40 H5         -1.3812   -5.0005    0.2203 H         1 <0>         0.0693
     41 H6         -0.0441   -5.5582   -0.8138 H         1 <0>         0.0749
     42 H7          0.3049   -4.7233    0.7190 H         1 <0>         0.0574
     43 H8         -1.3366   -2.5456   -2.5778 H         1 <0>         0.0731
     44 H9         -1.0026   -4.2865   -2.7390 H         1 <0>         0.0743
     45 H10        -2.3397   -3.7288   -1.7049 H         1 <0>         0.0757
     46 H11         1.5991   -3.0738   -0.6192 H         1 <0>         0.3687
     47 H12         0.9850   -2.5706    1.1472 H         1 <0>         0.4165
     48 H13         2.5225   -2.4457    3.0523 H         1 <0>         0.1722
     49 H14        -3.4928    0.2613    5.8966 H         1 <0>         0.2789
     50 H15        -3.4340   -1.2590    1.0612 H         1 <0>         0.1935
     51 H16        -7.4234   -0.1785    0.6505 H         1 <0>         0.1916
     52 H17        -7.5573    0.5725    2.9727 H         1 <0>         0.1702
     53 H18         1.2790    0.3005    7.1346 H         1 <0>         0.0838
     54 H19        -0.1154   -0.7743    7.3966 H         1 <0>         0.0948
     55 H20         1.5353   -1.3691    7.6959 H         1 <0>         0.1132
     56 H21         4.7408   -2.4738    2.9520 H         1 <0>         0.0891
     57 H22         3.5516   -1.1868    3.2840 H         1 <0>         0.1017
     58 H23         5.6695   -0.3391    2.1966 H         1 <0>         0.0939
     59 H24         5.3400    0.4038    3.7807 H         1 <0>         0.0399
     60 H25         7.8695   -1.4935    5.5631 H         1 <0>         0.0962
     61 H26         6.5974   -0.2559    5.7049 H         1 <0>         0.0409
     62 H27         5.7579   -2.3338    6.6599 H         1 <0>         0.1026
     63 H28         6.1994   -3.2320    5.1838 H         1 <0>         0.0864
     64 H29         7.7978    0.8993    3.7825 H         1 <0>         0.0281
     65 H30         8.9347   -0.4698    3.7473 H         1 <0>         0.0747
     66 H31         8.0278   -0.0281    2.2808 H         1 <0>         0.0739
     67 H32        -5.8445    0.7876    5.3077 H         1 <0>         0.4715
@<TRIPOS>BOND
     1    1    2 1
     2    1   37 1
     3    1   38 1
     4    1   39 1
     5    2    3 1
     6    2    4 1
     7    2    8 1
     8    4    5 1
     9    4    6 1
    10    4    7 1
    11    5   40 1
    12    5   41 1
    13    5   42 1
    14    6   43 1
    15    6   44 1
    16    6   45 1
    17    7   46 1
    18    8    9 1
    19    8   47 1
    20    9   17 ar
    21    9   10 ar
    22   10   14 ar
    23   10   11 1
    24   11   12 2
    25   11   48 1
    26   12   13 1
    27   12   28 1
    28   13   14 1
    29   13   27 1
    30   14   15 ar
    31   15   16 ar
    32   16   17 ar
    33   16   18 1
    34   18   22 1
    35   18   19 1
    36   19   20 2
    37   19   49 1
    38   20   21 1
    39   20   67 1
    40   21   26 ar
    41   21   22 ar
    42   22   23 ar
    43   23   24 ar
    44   23   50 1
    45   24   25 ar
    46   25   26 ar
    47   25   51 1
    48   26   52 1
    49   27   53 1
    50   27   54 1
    51   27   55 1
    52   28   29 2
    53   28   30 am
    54   30   35 1
    55   30   31 1
    56   31   32 1
    57   31   56 1
    58   31   57 1
    59   32   33 1
    60   32   58 1
    61   32   59 1
    62   33   34 1
    63   33   36 1
    64   34   35 1
    65   34   60 1
    66   34   61 1
    67   35   62 1
    68   35   63 1
    69   36   64 1
    70   36   65 1
    71   36   66 1
@<TRIPOS>MOLECULE
CHEMBL232147__1
   68    72     0     0     0
SMALL
USER_CHARGES

@<TRIPOS>ATOM
      1 C1         -0.8287   -0.9227   -0.6354 C.3       1 <0>        -0.1650
      2 C2         -0.8210   -2.2759    0.0787 C.3       1 <0>         0.1140
      3 H1         -1.8279   -2.5102    0.4240 H         1 <0>         0.1045
      4 C3         -0.3487   -3.3613   -0.8907 C.3       1 <0>         0.1220
      5 C4         -0.3410   -4.7145   -0.1767 C.3       1 <0>        -0.1828
      6 C5         -1.2975   -3.4226   -2.0894 C.3       1 <0>        -0.1465
      7 O1          0.9714   -3.0541   -1.3434 O.3       1 <0>        -0.5419
      8 N1          0.0876   -2.2172    1.2264 N.pl3     1 <0>        -0.6713
      9 C6         -0.3608   -1.7299    2.4371 C.ar      1 <0>         0.5472
     10 C7          0.5014   -1.6606    3.5510 C.ar      1 <0>        -0.2557
     11 C8          1.8518   -1.9973    3.7742 C.2       1 <0>        -0.1054
     12 C9          2.1399   -1.7033    5.0719 C.2       1 <0>         0.0202
     13 N2          1.0062   -1.1881    5.6795 N.pl3     1 <0>        -0.4098
     14 C10        -0.0080   -1.1538    4.7646 C.ar      1 <0>         0.3790
     15 N3         -1.2792   -0.7618    4.8109 N.ar      1 <0>        -0.5680
     16 C11        -2.0511   -0.8450    3.7413 C.ar      1 <0>         0.5969
     17 N4         -1.6126   -1.3102    2.5790 N.ar      1 <0>        -0.5971
     18 N5         -3.3734   -0.4234    3.8367 N.pl3     1 <0>        -0.3598
     19 C12        -3.9817    0.0884    4.9448 C.cat     1 <0>         0.4293
     20 N6         -5.2230    0.3791    4.6795 N.pl3     1 <0>        -0.4794
     21 C13        -5.4977    0.0759    3.3894 C.ar      1 <0>         0.0860
     22 C14        -4.3146   -0.4395    2.8243 C.ar      1 <0>         0.0270
     23 C15        -4.3186   -0.8283    1.4955 C.ar      1 <0>         0.1859
     24 N7         -5.4164   -0.7129    0.7736 N.ar      1 <0>        -0.4345
     25 C16        -6.5422   -0.2311    1.2718 C.ar      1 <0>         0.1382
     26 C17        -6.6315    0.1703    2.5753 C.ar      1 <0>        -0.1221
     27 C18         0.9104   -0.7523    7.0749 C.3       1 <0>         0.0606
     28 C19         3.4406   -1.9003    5.7221 C.2       1 <0>         0.5977
     29 O2          3.5017   -2.0479    6.9284 O.2       1 <0>        -0.4946
     30 N8          4.5675   -1.9178    4.9831 N.am      1 <0>        -0.6197
     31 C20         4.5386   -1.5806    3.5514 C.3       1 <0>         0.0604
     32 C21         5.6230   -0.5334    3.2770 C.3       1 <0>        -0.0222
     33 N9          6.9177   -1.0340    3.7558 N.4       1 <0>        -0.3864
     34 C22         6.8835   -1.1942    5.2149 C.3       1 <0>        -0.0211
     35 C23         5.8625   -2.2686    5.5866 C.3       1 <0>         0.0903
     36 C24         7.9738   -0.0789    3.3945 C.3       1 <0>        -0.0486
     37 H2          0.1782   -0.6884   -0.9807 H         1 <0>         0.0694
     38 H3         -1.5047   -0.9664   -1.4893 H         1 <0>         0.0832
     39 H4         -1.1652   -0.1494    0.0552 H         1 <0>         0.0587
     40 H5         -1.3479   -4.9488    0.1686 H         1 <0>         0.0716
     41 H6         -0.0045   -5.4878   -0.8672 H         1 <0>         0.0767
     42 H7          0.3350   -4.6708    0.6773 H         1 <0>         0.0543
     43 H8         -1.3030   -2.4586   -2.5980 H         1 <0>         0.0744
     44 H9         -0.9611   -4.1959   -2.7799 H         1 <0>         0.0764
     45 H10        -2.3045   -3.6570   -1.7441 H         1 <0>         0.0781
     46 H11         1.6273   -2.9991   -0.6350 H         1 <0>         0.3630
     47 H12         1.0043   -2.5209    1.1353 H         1 <0>         0.4139
     48 H13         2.5340   -2.4136    3.0478 H         1 <0>         0.1691
     49 H14        -3.5037    0.2318    5.9026 H         1 <0>         0.2796
     50 H15        -3.4199   -1.2270    1.0486 H         1 <0>         0.1919
     51 H16        -7.4122   -0.1583    0.6361 H         1 <0>         0.1942
     52 H17        -7.5582    0.5628    2.9671 H         1 <0>         0.1728
     53 H18         1.2632    0.2756    7.1595 H         1 <0>         0.0862
     54 H19        -0.1277   -0.8082    7.4025 H         1 <0>         0.0998
     55 H20         1.5243   -1.3999    7.7007 H         1 <0>         0.1121
     56 H21         4.7353   -2.4751    2.9604 H         1 <0>         0.1067
     57 H22         3.5618   -1.1733    3.2907 H         1 <0>         0.1427
     58 H23         5.6809   -0.3423    2.2055 H         1 <0>         0.1492
     59 H24         5.3755    0.3912    3.7984 H         1 <0>         0.1346
     60 H25         7.8702   -1.4899    5.5714 H         1 <0>         0.1510
     61 H26         6.5978   -0.2495    5.6777 H         1 <0>         0.1352
     62 H27         5.7604   -2.3160    6.6708 H         1 <0>         0.1415
     63 H28         6.1951   -3.2338    5.2046 H         1 <0>         0.1043
     64 H29         7.7639    0.8864    3.8551 H         1 <0>         0.1232
     65 H30         8.9356   -0.4493    3.7493 H         1 <0>         0.1294
     66 H31         8.0056    0.0349    2.3109 H         1 <0>         0.1283
     67 H32        -5.8554    0.7557    5.3113 H         1 <0>         0.4734
     68 H33         7.1123   -1.9255    3.3252 H         1 <0>         0.4275
@<TRIPOS>BOND
     1    1    2 1
     2    1   37 1
     3    1   38 1
     4    1   39 1
     5    2    3 1
     6    2    4 1
     7    2    8 1
     8    4    5 1
     9    4    6 1
    10    4    7 1
    11    5   40 1
    12    5   41 1
    13    5   42 1
    14    6   43 1
    15    6   44 1
    16    6   45 1
    17    7   46 1
    18    8    9 1
    19    8   47 1
    20    9   17 ar
    21    9   10 ar
    22   10   14 ar
    23   10   11 1
    24   11   12 2
    25   11   48 1
    26   12   13 1
    27   12   28 1
    28   13   14 1
    29   13   27 1
    30   14   15 ar
    31   15   16 ar
    32   16   17 ar
    33   16   18 1
    34   18   22 1
    35   18   19 1
    36   19   20 2
    37   19   49 1
    38   20   21 1
    39   20   67 1
    40   21   26 ar
    41   21   22 ar
    42   22   23 ar
    43   23   24 ar
    44   23   50 1
    45   24   25 ar
    46   25   26 ar
    47   25   51 1
    48   26   52 1
    49   27   53 1
    50   27   54 1
    51   27   55 1
    52   28   29 2
    53   28   30 am
    54   30   35 1
    55   30   31 1
    56   31   32 1
    57   31   56 1
    58   31   57 1
    59   32   33 1
    60   32   58 1
    61   32   59 1
    62   33   34 1
    63   33   36 1
    64   33   68 1
    65   34   35 1
    66   34   60 1
    67   34   61 1
    68   35   62 1
    69   35   63 1
    70   36   64 1
    71   36   65 1
    72   36   66 1
@<TRIPOS>MOLECULE
CHEMBL231733
   69    74     0     0     0
SMALL
USER_CHARGES

@<TRIPOS>ATOM
      1 C1          0.6009    1.3436   -0.1859 C.3       1 <0>        -0.1629
      2 C2          0.6209   -0.1855   -0.1390 C.3       1 <0>         0.1870
      3 H1         -0.3949   -0.5657   -0.2468 H         1 <0>         0.1027
      4 C3          1.4760   -0.7114   -1.2630 C.ar      1 <0>        -0.1060
      5 C4          2.8522   -0.7291   -1.1344 C.ar      1 <0>        -0.1183
      6 C5          3.6366   -1.2115   -2.1655 C.ar      1 <0>        -0.1137
      7 C6          3.0447   -1.6765   -3.3249 C.ar      1 <0>        -0.1094
      8 C7          1.6684   -1.6596   -3.4531 C.ar      1 <0>        -0.1090
      9 C8          0.8838   -1.1812   -2.4204 C.ar      1 <0>        -0.1017
     10 N1          1.1742   -0.6276    1.1434 N.pl3     1 <0>        -0.6703
     11 C9          0.3541   -0.7364    2.2479 C.ar      1 <0>         0.5448
     12 C10         0.8706   -1.1547    3.4918 C.ar      1 <0>        -0.2523
     13 C11         2.1484   -1.5329    3.9512 C.2       1 <0>        -0.0928
     14 C12         2.0358   -1.8411    5.2725 C.2       1 <0>         0.0233
     15 N2          0.7182   -1.6684    5.6647 N.pl3     1 <0>        -0.4094
     16 C13        -0.0112   -1.2483    4.5885 C.ar      1 <0>         0.3718
     17 N3         -1.2931   -0.9389    4.4069 N.ar      1 <0>        -0.5658
     18 C14        -1.7332   -0.5513    3.2225 C.ar      1 <0>         0.5881
     19 N4         -0.9386   -0.4443    2.1658 N.ar      1 <0>        -0.6010
     20 N5         -3.0811   -0.2381    3.0799 N.pl3     1 <0>        -0.3561
     21 C15        -4.0301   -0.2819    4.0584 C.cat     1 <0>         0.4280
     22 N6         -5.1859    0.0755    3.5768 N.pl3     1 <0>        -0.4815
     23 C16        -5.0612    0.3724    2.2622 C.ar      1 <0>         0.0861
     24 C17        -3.7077    0.1815    1.9213 C.ar      1 <0>         0.0282
     25 C18        -3.3021    0.4234    0.6198 C.ar      1 <0>         0.1868
     26 N7         -4.1742    0.8291   -0.2826 N.ar      1 <0>        -0.4364
     27 C19        -5.4504    1.0206    0.0044 C.ar      1 <0>         0.1365
     28 C20        -5.9402    0.7996    1.2611 C.ar      1 <0>        -0.1240
     29 C21         0.1928   -1.8994    7.0126 C.3       1 <0>         0.0654
     30 C22         3.1325   -2.2846    6.1408 C.2       1 <0>         0.5897
     31 O1          2.9422   -2.4333    7.3335 O.2       1 <0>        -0.5163
     32 N8          4.3505   -2.5273    5.6173 N.am      1 <0>        -0.7186
     33 C23         5.4144   -3.0766    6.4615 C.3       1 <0>         0.1231
     34 C24         6.6852   -3.2555    5.6285 C.3       1 <0>        -0.1556
     35 C25         7.7963   -3.8292    6.5102 C.3       1 <0>         0.0956
     36 N9          9.0132   -4.0004    5.7126 N.pl3     1 <0>        -0.4107
     37 C26         9.3677   -5.1146    5.0008 C.2       1 <0>         0.0246
     38 C27        10.5524   -4.8451    4.4198 C.2       1 <0>         0.0071
     39 N10        10.9114   -3.6004    4.7674 N.pl3     1 <0>        -0.4748
     40 C28         9.9918   -3.0865    5.5376 C.cat     1 <0>         0.2894
     41 H2          1.6167    1.7238   -0.0780 H         1 <0>         0.0648
     42 H3          0.1892    1.6725   -1.1400 H         1 <0>         0.0808
     43 H4         -0.0176    1.7240    0.6271 H         1 <0>         0.0639
     44 H5          3.3147   -0.3658   -0.2286 H         1 <0>         0.1160
     45 H6          4.7118   -1.2247   -2.0653 H         1 <0>         0.1252
     46 H7          3.6575   -2.0527   -4.1307 H         1 <0>         0.1280
     47 H8          1.2059   -2.0226   -4.3591 H         1 <0>         0.1303
     48 H9         -0.1916   -1.1715   -2.5191 H         1 <0>         0.1275
     49 H10         2.1170   -0.8439    1.2162 H         1 <0>         0.4194
     50 H11         3.0526   -1.5716    3.3618 H         1 <0>         0.1615
     51 H12        -3.8494   -0.5709    5.0832 H         1 <0>         0.2794
     52 H13        -2.2681    0.2798    0.3427 H         1 <0>         0.1925
     53 H14        -6.1222    1.3536   -0.7730 H         1 <0>         0.1929
     54 H15        -6.9853    0.9617    1.4800 H         1 <0>         0.1716
     55 H16         0.2001   -0.9632    7.5708 H         1 <0>         0.0869
     56 H17        -0.8285   -2.2743    6.9452 H         1 <0>         0.0922
     57 H18         0.8159   -2.6326    7.5247 H         1 <0>         0.1128
     58 H19         4.5227   -2.3382    4.6816 H         1 <0>         0.4059
     59 H20         5.6137   -2.3923    7.2861 H         1 <0>         0.0856
     60 H21         5.1012   -4.0423    6.8584 H         1 <0>         0.0844
     61 H22         6.4859   -3.9398    4.8039 H         1 <0>         0.0909
     62 H23         6.9984   -2.2898    5.2317 H         1 <0>         0.0890
     63 H24         7.9957   -3.1448    7.3348 H         1 <0>         0.1280
     64 H25         7.4831   -4.7948    6.9070 H         1 <0>         0.1303
     65 H26         8.8056   -6.0333    4.9208 H         1 <0>         0.2237
     66 H27        11.1148   -5.5141    3.7853 H         1 <0>         0.2251
     67 H28        10.0114   -2.0953    5.9662 H         1 <0>         0.2605
     68 H29        -6.0117    0.1216    4.0836 H         1 <0>         0.4725
     69 H30        11.7245   -3.1517    4.4874 H         1 <0>         0.4670
@<TRIPOS>BOND
     1    1    2 1
     2    1   41 1
     3    1   42 1
     4    1   43 1
     5    2    3 1
     6    2    4 1
     7    2   10 1
     8    4    9 ar
     9    4    5 ar
    10    5    6 ar
    11    5   44 1
    12    6    7 ar
    13    6   45 1
    14    7    8 ar
    15    7   46 1
    16    8    9 ar
    17    8   47 1
    18    9   48 1
    19   10   11 1
    20   10   49 1
    21   11   19 ar
    22   11   12 ar
    23   12   16 ar
    24   12   13 1
    25   13   14 2
    26   13   50 1
    27   14   15 1
    28   14   30 1
    29   15   16 1
    30   15   29 1
    31   16   17 ar
    32   17   18 ar
    33   18   19 ar
    34   18   20 1
    35   20   24 1
    36   20   21 1
    37   21   22 2
    38   21   51 1
    39   22   23 1
    40   22   68 1
    41   23   28 ar
    42   23   24 ar
    43   24   25 ar
    44   25   26 ar
    45   25   52 1
    46   26   27 ar
    47   27   28 ar
    48   27   53 1
    49   28   54 1
    50   29   55 1
    51   29   56 1
    52   29   57 1
    53   30   31 2
    54   30   32 am
    55   32   33 1
    56   32   58 1
    57   33   34 1
    58   33   59 1
    59   33   60 1
    60   34   35 1
    61   34   61 1
    62   34   62 1
    63   35   36 1
    64   35   63 1
    65   35   64 1
    66   36   40 1
    67   36   37 1
    68   37   38 2
    69   37   65 1
    70   38   39 1
    71   38   66 1
    72   39   40 2
    73   39   69 1
    74   40   67 1
@<TRIPOS>MOLECULE
CHEMBL231733__1
   68    73     0     0     0
SMALL
USER_CHARGES

@<TRIPOS>ATOM
      1 C1         -0.4937    1.3301   -0.4274 C.3       1 <0>        -0.1626
      2 C2         -0.4247   -0.1979   -0.4628 C.3       1 <0>         0.1879
      3 H1         -0.0009   -0.5643    0.4722 H         1 <0>         0.1014
      4 C3         -1.8120   -0.7594   -0.6395 C.ar      1 <0>        -0.1067
      5 C4         -2.3880   -0.7960   -1.8956 C.ar      1 <0>        -0.1165
      6 C5         -3.6605   -1.3110   -2.0578 C.ar      1 <0>        -0.1115
      7 C6         -4.3569   -1.7899   -0.9638 C.ar      1 <0>        -0.1096
      8 C7         -3.7806   -1.7541    0.2921 C.ar      1 <0>        -0.1112
      9 C8         -2.5064   -1.2430    0.4536 C.ar      1 <0>        -0.1035
     10 N1          0.4202   -0.6228   -1.5816 N.pl3     1 <0>        -0.6709
     11 C9          1.7891   -0.6967   -1.4232 C.ar      1 <0>         0.5441
     12 C10         2.6185   -1.0981   -2.4909 C.ar      1 <0>        -0.2483
     13 C11         2.3872   -1.4868   -3.8259 C.2       1 <0>        -0.0960
     14 C12         3.5952   -1.7669   -4.3879 C.2       1 <0>         0.0316
     15 N2          4.5888   -1.5658   -3.4434 N.pl3     1 <0>        -0.4089
     16 C13         4.0110   -1.1560   -2.2751 C.ar      1 <0>         0.3663
     17 N3          4.4866   -0.8304   -1.0753 N.ar      1 <0>        -0.5635
     18 C14         3.6713   -0.4597   -0.1034 C.ar      1 <0>         0.5793
     19 N4          2.3566   -0.3863   -0.2635 N.ar      1 <0>        -0.6023
     20 N5          4.2136   -0.1284    1.1342 N.pl3     1 <0>        -0.3522
     21 C15         5.5361   -0.1379    1.4670 C.cat     1 <0>         0.4265
     22 N6          5.6877    0.2277    2.7075 N.pl3     1 <0>        -0.4838
     23 C16         4.4798    0.4963    3.2557 C.ar      1 <0>         0.0861
     24 C17         3.5130    0.2776    2.2546 C.ar      1 <0>         0.0291
     25 C18         2.1774    0.4871    2.5532 C.ar      1 <0>         0.1886
     26 N7          1.8217    0.8881    3.7583 N.ar      1 <0>        -0.4379
     27 C19         2.7031    1.1052    4.7194 C.ar      1 <0>         0.1351
     28 C20         4.0416    0.9171    4.5160 C.ar      1 <0>        -0.1265
     29 C21         6.0242   -1.7616   -3.6615 C.3       1 <0>         0.0661
     30 C22         3.8100   -2.2099   -5.7702 C.2       1 <0>         0.5848
     31 O1          4.9416   -2.3318   -6.2011 O.2       1 <0>        -0.5225
     32 N8          2.7542   -2.4820   -6.5625 N.am      1 <0>        -0.7118
     33 C23         2.9673   -3.0308   -7.9040 C.3       1 <0>         0.1229
     34 C24         1.6155   -3.2460   -8.5875 C.3       1 <0>        -0.1498
     35 C25         1.8380   -3.8192   -9.9886 C.3       1 <0>         0.1088
     36 N9          0.5437   -4.0253  -10.6431 N.pl3     1 <0>        -0.4630
     37 C26        -0.2216   -5.1591  -10.5908 C.2       1 <0>        -0.0583
     38 C27        -1.3235   -4.9197  -11.3270 C.2       1 <0>        -0.0256
     39 N10        -1.2335   -3.6738  -11.8156 N.2       1 <0>        -0.4924
     40 C28        -0.1201   -3.1302  -11.4059 C.2       1 <0>         0.1820
     41 H2          0.5097    1.7362   -0.2995 H         1 <0>         0.0632
     42 H3         -0.9175    1.6964   -1.3624 H         1 <0>         0.0656
     43 H4         -1.1224    1.6462    0.4051 H         1 <0>         0.0793
     44 H5         -1.8439   -0.4219   -2.7503 H         1 <0>         0.1180
     45 H6         -4.1108   -1.3390   -3.0390 H         1 <0>         0.1275
     46 H7         -5.3514   -2.1916   -1.0904 H         1 <0>         0.1277
     47 H8         -4.3248   -2.1279    1.1468 H         1 <0>         0.1286
     48 H9         -2.0546   -1.2185    1.4343 H         1 <0>         0.1259
     49 H10         0.0175   -0.8523   -2.4337 H         1 <0>         0.4211
     50 H11         1.4260   -1.5515   -4.3141 H         1 <0>         0.1639
     51 H12         6.3403   -0.4091    0.7992 H         1 <0>         0.2791
     52 H13         1.4244    0.3218    1.7968 H         1 <0>         0.1936
     53 H14         2.3574    1.4331    5.6886 H         1 <0>         0.1914
     54 H15         4.7493    1.0998    5.3111 H         1 <0>         0.1701
     55 H16         6.4804   -0.8146   -3.9502 H         1 <0>         0.0858
     56 H17         6.4856   -2.1218   -2.7420 H         1 <0>         0.0902
     57 H18         6.1746   -2.4940   -4.4546 H         1 <0>         0.1141
     58 H19         1.8533   -2.3143   -6.2445 H         1 <0>         0.4055
     59 H20         3.5645   -2.3333   -8.4913 H         1 <0>         0.0819
     60 H21         3.4917   -3.9833   -7.8278 H         1 <0>         0.0797
     61 H22         1.0183   -3.9436   -8.0002 H         1 <0>         0.0813
     62 H23         1.0911   -2.2935   -8.6638 H         1 <0>         0.0823
     63 H24         2.4352   -3.1217  -10.5759 H         1 <0>         0.1005
     64 H25         2.3624   -4.7718   -9.9124 H         1 <0>         0.0978
     65 H26         0.0133   -6.0705  -10.0611 H         1 <0>         0.1742
     66 H27        -2.1370   -5.6099  -11.4947 H         1 <0>         0.1706
     67 H28         0.2161   -2.1310  -11.6403 H         1 <0>         0.2042
     68 H29         6.5380    0.2969    3.1692 H         1 <0>         0.4715
@<TRIPOS>BOND
     1    1    2 1
     2    1   41 1
     3    1   42 1
     4    1   43 1
     5    2    3 1
     6    2    4 1
     7    2   10 1
     8    4    9 ar
     9    4    5 ar
    10    5    6 ar
    11    5   44 1
    12    6    7 ar
    13    6   45 1
    14    7    8 ar
    15    7   46 1
    16    8    9 ar
    17    8   47 1
    18    9   48 1
    19   10   11 1
    20   10   49 1
    21   11   19 ar
    22   11   12 ar
    23   12   16 ar
    24   12   13 1
    25   13   14 2
    26   13   50 1
    27   14   15 1
    28   14   30 1
    29   15   16 1
    30   15   29 1
    31   16   17 ar
    32   17   18 ar
    33   18   19 ar
    34   18   20 1
    35   20   24 1
    36   20   21 1
    37   21   22 2
    38   21   51 1
    39   22   23 1
    40   22   68 1
    41   23   28 ar
    42   23   24 ar
    43   24   25 ar
    44   25   26 ar
    45   25   52 1
    46   26   27 ar
    47   27   28 ar
    48   27   53 1
    49   28   54 1
    50   29   55 1
    51   29   56 1
    52   29   57 1
    53   30   31 2
    54   30   32 am
    55   32   33 1
    56   32   58 1
    57   33   34 1
    58   33   59 1
    59   33   60 1
    60   34   35 1
    61   34   61 1
    62   34   62 1
    63   35   36 1
    64   35   63 1
    65   35   64 1
    66   36   40 1
    67   36   37 1
    68   37   38 2
    69   37   65 1
    70   38   39 1
    71   38   66 1
    72   39   40 2
    73   40   67 1
@<TRIPOS>MOLECULE
CHEMBL391096
   63    68     0     0     0
SMALL
USER_CHARGES

@<TRIPOS>ATOM
      1 C1         -0.8319   -0.9331   -0.6356 C.3       1 <0>        -0.1623
      2 C2         -0.8248   -2.2848    0.0813 C.3       1 <0>         0.1879
      3 H1         -1.8317   -2.5177    0.4277 H         1 <0>         0.1013
      4 C3         -0.3610   -3.3562   -0.8716 C.ar      1 <0>        -0.1069
      5 C4          0.9887   -3.5248   -1.1183 C.ar      1 <0>        -0.1163
      6 C5          1.4141   -4.5076   -1.9923 C.ar      1 <0>        -0.1114
      7 C6          0.4899   -5.3222   -2.6193 C.ar      1 <0>        -0.1097
      8 C7         -0.8597   -5.1542   -2.3720 C.ar      1 <0>        -0.1113
      9 C8         -1.2849   -4.1742   -1.4946 C.ar      1 <0>        -0.1035
     10 N1          0.0846   -2.2244    1.2283 N.pl3     1 <0>        -0.6712
     11 C9         -0.3626   -1.7343    2.4383 C.ar      1 <0>         0.5443
     12 C10         0.5003   -1.6633    3.5515 C.ar      1 <0>        -0.2486
     13 C11         1.8506   -2.0006    3.7745 C.2       1 <0>        -0.1060
     14 C12         2.1398   -1.7041    5.0714 C.2       1 <0>         0.0363
     15 N2          1.0069   -1.1867    5.6786 N.pl3     1 <0>        -0.4099
     16 C13        -0.0079   -1.1537    4.7643 C.ar      1 <0>         0.3668
     17 N3         -1.2788   -0.7606    4.8107 N.ar      1 <0>        -0.5635
     18 C14        -2.0514   -0.8454    3.7418 C.ar      1 <0>         0.5790
     19 N4         -1.6140   -1.3133    2.5801 N.ar      1 <0>        -0.6018
     20 N5         -3.3734   -0.4227    3.8371 N.pl3     1 <0>        -0.3521
     21 C15        -3.9806    0.0919    4.9446 C.cat     1 <0>         0.4264
     22 N6         -5.2218    0.3829    4.6795 N.pl3     1 <0>        -0.4838
     23 C16        -5.4976    0.0773    3.3902 C.ar      1 <0>         0.0862
     24 C17        -4.3152   -0.4401    2.8254 C.ar      1 <0>         0.0292
     25 C18        -4.3204   -0.8317    1.4974 C.ar      1 <0>         0.1887
     26 N7         -5.4185   -0.7170    0.7760 N.ar      1 <0>        -0.4379
     27 C19        -6.5436   -0.2333    1.2739 C.ar      1 <0>         0.1351
     28 C20        -6.6318    0.1708    2.5766 C.ar      1 <0>        -0.1266
     29 C21         0.9123   -0.7480    7.0732 C.3       1 <0>         0.0633
     30 C22         3.4408   -1.9007    5.7211 C.2       1 <0>         0.5857
     31 O1          3.5024   -2.0479    6.9275 O.2       1 <0>        -0.5216
     32 N8          4.5675   -1.9183    4.9817 N.am      1 <0>        -0.5974
     33 C23         4.5390   -1.5810    3.5496 C.3       1 <0>         0.0487
     34 C24         5.6229   -0.5314    3.2785 C.3       1 <0>         0.0461
     35 O2          6.8709   -0.9990    3.7959 O.3       1 <0>        -0.3732
     36 C25         6.8819   -1.1914    5.2125 C.3       1 <0>         0.0465
     37 C26         5.8634   -2.2693    5.5840 C.3       1 <0>         0.0776
     38 H2          0.1749   -0.7002   -0.9820 H         1 <0>         0.0658
     39 H3         -1.5085   -0.9780   -1.4890 H         1 <0>         0.0792
     40 H4         -1.1674   -0.1581    0.0536 H         1 <0>         0.0632
     41 H5          1.7108   -2.8884   -0.6284 H         1 <0>         0.1183
     42 H6          2.4686   -4.6388   -2.1855 H         1 <0>         0.1277
     43 H7          0.8222   -6.0896   -3.3027 H         1 <0>         0.1276
     44 H8         -1.5818   -5.7904   -2.8621 H         1 <0>         0.1284
     45 H9         -2.3391   -4.0454   -1.2985 H         1 <0>         0.1258
     46 H10         1.0010   -2.5289    1.1372 H         1 <0>         0.4210
     47 H11         2.5320   -2.4188    3.0485 H         1 <0>         0.1718
     48 H12        -3.5018    0.2370    5.9017 H         1 <0>         0.2790
     49 H13        -3.4222   -1.2319    1.0508 H         1 <0>         0.1937
     50 H14        -7.4141   -0.1611    0.6387 H         1 <0>         0.1914
     51 H15        -7.5580    0.5649    2.9682 H         1 <0>         0.1700
     52 H16         1.2659    0.2798    7.1555 H         1 <0>         0.0843
     53 H17        -0.1256   -0.8025    7.4016 H         1 <0>         0.0951
     54 H18         1.5262   -1.3948    7.7000 H         1 <0>         0.1128
     55 H19         4.7372   -2.4747    2.9580 H         1 <0>         0.0899
     56 H20         3.5617   -1.1757    3.2873 H         1 <0>         0.1082
     57 H21         5.7120   -0.3692    2.2043 H         1 <0>         0.1125
     58 H22         5.3537    0.4047    3.7677 H         1 <0>         0.0580
     59 H23         7.8768   -1.5040    5.5297 H         1 <0>         0.1156
     60 H24         6.6173   -0.2577    5.7088 H         1 <0>         0.0591
     61 H25         5.7627   -2.3196    6.6681 H         1 <0>         0.1087
     62 H26         6.1972   -3.2335    5.2006 H         1 <0>         0.0873
     63 H27        -5.8535    0.7613    5.3109 H         1 <0>         0.4714
@<TRIPOS>BOND
     1    1    2 1
     2    1   38 1
     3    1   39 1
     4    1   40 1
     5    2    3 1
     6    2    4 1
     7    2   10 1
     8    4    9 ar
     9    4    5 ar
    10    5    6 ar
    11    5   41 1
    12    6    7 ar
    13    6   42 1
    14    7    8 ar
    15    7   43 1
    16    8    9 ar
    17    8   44 1
    18    9   45 1
    19   10   11 1
    20   10   46 1
    21   11   19 ar
    22   11   12 ar
    23   12   16 ar
    24   12   13 1
    25   13   14 2
    26   13   47 1
    27   14   15 1
    28   14   30 1
    29   15   16 1
    30   15   29 1
    31   16   17 ar
    32   17   18 ar
    33   18   19 ar
    34   18   20 1
    35   20   24 1
    36   20   21 1
    37   21   22 2
    38   21   48 1
    39   22   23 1
    40   22   63 1
    41   23   28 ar
    42   23   24 ar
    43   24   25 ar
    44   25   26 ar
    45   25   49 1
    46   26   27 ar
    47   27   28 ar
    48   27   50 1
    49   28   51 1
    50   29   52 1
    51   29   53 1
    52   29   54 1
    53   30   31 2
    54   30   32 am
    55   32   37 1
    56   32   33 1
    57   33   34 1
    58   33   55 1
    59   33   56 1
    60   34   35 1
    61   34   57 1
    62   34   58 1
    63   35   36 1
    64   36   37 1
    65   36   59 1
    66   36   60 1
    67   37   61 1
    68   37   62 1
@<TRIPOS>MOLECULE
CHEMBL393375
   65    70     0     0     0
SMALL
USER_CHARGES

@<TRIPOS>ATOM
      1 C1          1.1600    2.3515    0.0799 C.3       1 <0>         0.0714
      2 N1          1.0522    0.8937   -0.0181 N.pl3     1 <0>        -0.4094
      3 C2          0.6617    0.1882   -1.1449 C.2       1 <0>         0.0494
      4 C3          0.6799   -1.1435   -0.8619 C.2       1 <0>        -0.1095
      5 C4          1.0921   -1.2885    0.4781 C.ar      1 <0>        -0.2335
      6 C5          1.3258    0.0072    0.9850 C.ar      1 <0>         0.3647
      7 N2          1.7348    0.1373    2.2447 N.ar      1 <0>        -0.5452
      8 C6          1.9223   -0.9262    3.0072 C.ar      1 <0>         0.5658
      9 N3          1.7187   -2.1618    2.5713 N.ar      1 <0>        -0.5809
     10 C7          1.3011   -2.3914    1.3313 C.ar      1 <0>         0.5305
     11 N4          1.0925   -3.6808    0.8833 N.pl3     1 <0>        -0.6127
     12 C8          1.2349   -4.7583    1.7632 C.ar      1 <0>         0.1928
     13 C9          1.1702   -4.5496    3.1340 C.ar      1 <0>        -0.1736
     14 C10         1.3118   -5.6199    4.0029 C.ar      1 <0>         0.1608
     15 C11         1.5179   -6.8976    3.5017 C.ar      1 <0>        -0.2065
     16 C12         1.5827   -7.1046    2.1368 C.ar      1 <0>        -0.0370
     17 C13         1.4358   -6.0409    1.2663 C.ar      1 <0>        -0.1039
     18 Cl1         1.5094   -6.3058   -0.4478 Cl        1 <0>        -0.0550
     19 O1          1.2493   -5.4183    5.3456 O.3       1 <0>        -0.3112
     20 C14         1.4035   -6.5667    6.1819 C.3       1 <0>         0.0246
     21 N5          2.3505   -0.7417    4.3180 N.pl3     1 <0>        -0.3528
     22 C15         2.1653    0.3737    5.0805 C.cat     1 <0>         0.4252
     23 N6          2.6946    0.2035    6.2580 N.pl3     1 <0>        -0.4827
     24 C16         3.2539   -1.0266    6.3341 C.ar      1 <0>         0.0884
     25 C17         3.0379   -1.6571    5.0930 C.ar      1 <0>         0.0283
     26 C18         3.5099   -2.9446    4.9022 C.ar      1 <0>         0.1947
     27 N7          4.1488   -3.5679    5.8733 N.ar      1 <0>        -0.4312
     28 C19         4.3655   -3.0066    7.0505 C.ar      1 <0>         0.1359
     29 C20         3.9427   -1.7359    7.3239 C.ar      1 <0>        -0.1278
     30 C21         0.2889    0.7804   -2.4346 C.2       1 <0>         0.5814
     31 O2          0.7717    1.8432   -2.7784 O.2       1 <0>        -0.5205
     32 N8         -0.5883    0.1473   -3.2385 N.am      1 <0>        -0.5937
     33 C22        -1.3109   -1.0470   -2.7750 C.3       1 <0>         0.0915
     34 C23        -2.8072   -0.8415   -3.0336 C.3       1 <0>         0.0385
     35 N9         -3.0142   -0.4998   -4.4472 N.3       1 <0>        -0.5425
     36 C24        -2.3629    0.7717   -4.7891 C.3       1 <0>         0.0385
     37 C25        -0.8528    0.6359   -4.6003 C.3       1 <0>         0.1171
     38 C26        -4.4455   -0.4632   -4.7758 C.3       1 <0>         0.0233
     39 H1          2.1858    2.6548   -0.1297 H         1 <0>         0.0903
     40 H2          0.4891    2.8148   -0.6435 H         1 <0>         0.1041
     41 H3          0.8854    2.6694    1.0857 H         1 <0>         0.0931
     42 H4          0.4247   -1.9435   -1.5410 H         1 <0>         0.1734
     43 H5          0.8472   -3.8391   -0.0417 H         1 <0>         0.4349
     44 H6          1.0101   -3.5548    3.5227 H         1 <0>         0.1708
     45 H7          1.6282   -7.7313    4.1793 H         1 <0>         0.1433
     46 H8          1.7435   -8.0999    1.7496 H         1 <0>         0.1470
     47 H9          1.3332   -6.2668    7.2275 H         1 <0>         0.1024
     48 H10         0.6178   -7.2880    5.9572 H         1 <0>         0.0608
     49 H11         2.3772   -7.0212    5.9990 H         1 <0>         0.0638
     50 H12         1.6542    1.2678    4.7552 H         1 <0>         0.2777
     51 H13         3.3543   -3.4402    3.9554 H         1 <0>         0.1870
     52 H14         4.8943   -3.5622    7.8109 H         1 <0>         0.1903
     53 H15         4.1261   -1.2920    8.2912 H         1 <0>         0.1694
     54 H16        -0.9614   -1.9220   -3.3231 H         1 <0>         0.0898
     55 H17        -1.1396   -1.1874   -1.7078 H         1 <0>         0.0990
     56 H18        -3.3464   -1.7592   -2.7985 H         1 <0>         0.0941
     57 H19        -3.1769   -0.0309   -2.4056 H         1 <0>         0.0401
     58 H20        -2.5798    1.0240   -5.8270 H         1 <0>         0.0964
     59 H21        -2.7387    1.5598   -4.1366 H         1 <0>         0.0410
     60 H22        -0.3789    1.6076   -4.7392 H         1 <0>         0.1029
     61 H23        -0.4585   -0.0743   -5.3271 H         1 <0>         0.0870
     62 H24        -4.9409    0.2866   -4.1589 H         1 <0>         0.0282
     63 H25        -4.5703   -0.2079   -5.8282 H         1 <0>         0.0747
     64 H26        -4.8875   -1.4409   -4.5842 H         1 <0>         0.0738
     65 H27         2.6891    0.8594    6.9726 H         1 <0>         0.4713
@<TRIPOS>BOND
     1    1    2 1
     2    1   39 1
     3    1   40 1
     4    1   41 1
     5    2    6 1
     6    2    3 1
     7    3    4 2
     8    3   30 1
     9    4    5 1
    10    4   42 1
    11    5   10 ar
    12    5    6 ar
    13    6    7 ar
    14    7    8 ar
    15    8    9 ar
    16    8   21 1
    17    9   10 ar
    18   10   11 1
    19   11   12 1
    20   11   43 1
    21   12   17 ar
    22   12   13 ar
    23   13   14 ar
    24   13   44 1
    25   14   15 ar
    26   14   19 1
    27   15   16 ar
    28   15   45 1
    29   16   17 ar
    30   16   46 1
    31   17   18 1
    32   19   20 1
    33   20   47 1
    34   20   48 1
    35   20   49 1
    36   21   25 1
    37   21   22 1
    38   22   23 2
    39   22   50 1
    40   23   24 1
    41   23   65 1
    42   24   29 ar
    43   24   25 ar
    44   25   26 ar
    45   26   27 ar
    46   26   51 1
    47   27   28 ar
    48   28   29 ar
    49   28   52 1
    50   29   53 1
    51   30   31 2
    52   30   32 am
    53   32   37 1
    54   32   33 1
    55   33   34 1
    56   33   54 1
    57   33   55 1
    58   34   35 1
    59   34   56 1
    60   34   57 1
    61   35   36 1
    62   35   38 1
    63   36   37 1
    64   36   58 1
    65   36   59 1
    66   37   60 1
    67   37   61 1
    68   38   62 1
    69   38   63 1
    70   38   64 1
@<TRIPOS>MOLECULE
CHEMBL393375__1
   66    71     0     0     0
SMALL
USER_CHARGES

@<TRIPOS>ATOM
      1 C1          1.2104    2.0076    0.1920 C.3       1 <0>         0.0684
      2 N1          1.0538    0.5573    0.0558 N.pl3     1 <0>        -0.4090
      3 C2          0.6284   -0.1040   -1.0851 C.2       1 <0>         0.0287
      4 C3          0.6060   -1.4427   -0.8385 C.2       1 <0>        -0.1081
      5 C4          1.0275   -1.6378    0.4922 C.ar      1 <0>        -0.2428
      6 C5          1.3088   -0.3648    1.0312 C.ar      1 <0>         0.3783
      7 N2          1.7352   -0.2827    2.2892 N.ar      1 <0>        -0.5521
      8 C6          1.8959   -1.3722    3.0205 C.ar      1 <0>         0.5862
      9 N3          1.6473   -2.5882    2.5536 N.ar      1 <0>        -0.5792
     10 C7          1.2092   -2.7699    1.3127 C.ar      1 <0>         0.5343
     11 N4          0.9537   -4.0391    0.8324 N.pl3     1 <0>        -0.6100
     12 C8          1.0567   -5.1431    1.6846 C.ar      1 <0>         0.1849
     13 C9          0.9911   -4.9679    3.0600 C.ar      1 <0>        -0.1711
     14 C10         1.0936   -6.0644    3.9014 C.ar      1 <0>         0.1635
     15 C11         1.2615   -7.3346    3.3680 C.ar      1 <0>        -0.2015
     16 C12         1.3271   -7.5082    1.9985 C.ar      1 <0>        -0.0357
     17 C13         1.2192   -6.4182    1.1553 C.ar      1 <0>        -0.1021
     18 Cl1         1.2938   -6.6408   -0.5647 Cl        1 <0>        -0.0586
     19 O1          1.0301   -5.8957    5.2485 O.3       1 <0>        -0.3102
     20 C14         1.1429   -7.0697    6.0554 C.3       1 <0>         0.0231
     21 N5          2.3438   -1.2379    4.3308 N.pl3     1 <0>        -0.3603
     22 C15         2.2225   -0.1308    5.1180 C.cat     1 <0>         0.4277
     23 N6          2.7520   -0.3529    6.2867 N.pl3     1 <0>        -0.4784
     24 C16         3.2479   -1.6114    6.3320 C.ar      1 <0>         0.0881
     25 C17         2.9895   -2.2036    5.0801 C.ar      1 <0>         0.0266
     26 C18         3.3931   -3.5092    4.8582 C.ar      1 <0>         0.1919
     27 N7          4.0070   -4.1849    5.8101 N.ar      1 <0>        -0.4285
     28 C19         4.2621   -3.6606    6.9967 C.ar      1 <0>         0.1387
     29 C20         3.9075   -2.3760    7.3004 C.ar      1 <0>        -0.1236
     30 C21         0.2615    0.5353   -2.3540 C.2       1 <0>         0.5964
     31 O2          0.7438    1.6112   -2.6550 O.2       1 <0>        -0.4913
     32 N8         -0.6096   -0.0693   -3.1860 N.am      1 <0>        -0.6192
     33 C22        -1.3262   -1.2869   -2.7762 C.3       1 <0>         0.0606
     34 C23        -2.8206   -1.0858   -3.0483 C.3       1 <0>        -0.0220
     35 N9         -3.0152   -0.7124   -4.4550 N.4       1 <0>        -0.3867
     36 C24        -2.3870    0.5883   -4.7187 C.3       1 <0>        -0.0209
     37 C25        -0.8753    0.4733   -4.5273 C.3       1 <0>         0.0902
     38 C26        -4.4532   -0.6271   -4.7427 C.3       1 <0>        -0.0484
     39 H1          2.2438    2.2828   -0.0189 H         1 <0>         0.0934
     40 H2          0.5490    2.5121   -0.5124 H         1 <0>         0.1031
     41 H3          0.9549    2.3068    1.2085 H         1 <0>         0.0975
     42 H4          0.3175   -2.2152   -1.5361 H         1 <0>         0.1712
     43 H5          0.7028   -4.1649   -0.0961 H         1 <0>         0.4321
     44 H6          0.8608   -3.9789    3.4737 H         1 <0>         0.1686
     45 H7          1.3413   -8.1887    4.0242 H         1 <0>         0.1462
     46 H8          1.4582   -8.4978    1.5863 H         1 <0>         0.1491
     47 H9          1.0764   -6.7949    7.1081 H         1 <0>         0.1052
     48 H10         0.3358   -7.7594    5.8082 H         1 <0>         0.0624
     49 H11         2.1025   -7.5504    5.8653 H         1 <0>         0.0657
     50 H12         1.7555    0.7950    4.8161 H         1 <0>         0.2784
     51 H13         3.2044   -3.9760    3.9028 H         1 <0>         0.1861
     52 H14         4.7678   -4.2586    7.7404 H         1 <0>         0.1928
     53 H15         4.1214   -1.9627    8.2749 H         1 <0>         0.1720
     54 H16        -0.9606   -2.1379   -3.3508 H         1 <0>         0.1076
     55 H17        -1.1682   -1.4645   -1.7124 H         1 <0>         0.1415
     56 H18        -3.3558   -2.0124   -2.8408 H         1 <0>         0.1494
     57 H19        -3.2036   -0.2931   -2.4056 H         1 <0>         0.1351
     58 H20        -2.6027    0.8953   -5.7421 H         1 <0>         0.1511
     59 H21        -2.7831    1.3304   -4.0254 H         1 <0>         0.1354
     60 H22        -0.4194    1.4590   -4.6206 H         1 <0>         0.1419
     61 H23        -0.4634   -0.1969   -5.2817 H         1 <0>         0.1048
     62 H24        -4.9083    0.1264   -4.0999 H         1 <0>         0.1233
     63 H25        -4.5990   -0.3500   -5.7868 H         1 <0>         0.1294
     64 H26        -4.9193   -1.5944   -4.5550 H         1 <0>         0.1282
     65 H27         2.7862    0.2871    7.0147 H         1 <0>         0.4731
     66 H28        -2.5969   -1.4130   -5.0486 H         1 <0>         0.4277
@<TRIPOS>BOND
     1    1    2 1
     2    1   39 1
     3    1   40 1
     4    1   41 1
     5    2    6 1
     6    2    3 1
     7    3    4 2
     8    3   30 1
     9    4    5 1
    10    4   42 1
    11    5   10 ar
    12    5    6 ar
    13    6    7 ar
    14    7    8 ar
    15    8    9 ar
    16    8   21 1
    17    9   10 ar
    18   10   11 1
    19   11   12 1
    20   11   43 1
    21   12   17 ar
    22   12   13 ar
    23   13   14 ar
    24   13   44 1
    25   14   15 ar
    26   14   19 1
    27   15   16 ar
    28   15   45 1
    29   16   17 ar
    30   16   46 1
    31   17   18 1
    32   19   20 1
    33   20   47 1
    34   20   48 1
    35   20   49 1
    36   21   25 1
    37   21   22 1
    38   22   23 2
    39   22   50 1
    40   23   24 1
    41   23   65 1
    42   24   29 ar
    43   24   25 ar
    44   25   26 ar
    45   26   27 ar
    46   26   51 1
    47   27   28 ar
    48   28   29 ar
    49   28   52 1
    50   29   53 1
    51   30   31 2
    52   30   32 am
    53   32   37 1
    54   32   33 1
    55   33   34 1
    56   33   54 1
    57   33   55 1
    58   34   35 1
    59   34   56 1
    60   34   57 1
    61   35   36 1
    62   35   38 1
    63   35   66 1
    64   36   37 1
    65   36   58 1
    66   36   59 1
    67   37   60 1
    68   37   61 1
    69   38   62 1
    70   38   63 1
    71   38   64 1
@<TRIPOS>MOLECULE
CHEMBL1079078
   55    58     0     0     0
SMALL
USER_CHARGES

@<TRIPOS>ATOM
      1 C1          1.4026    1.7278    0.6604 C.3       1 <0>        -0.6375
      2 S1          1.2317   -0.0753    0.5604 S.o2      1 <0>         2.5271
      3 O1          2.1844   -0.7049    1.4062 O.2       1 <0>        -1.0261
      4 O2         -0.1403   -0.4408    0.6167 O.2       1 <0>        -1.0261
      5 N1          1.7097   -0.4635   -0.9769 N.2       1 <0>        -1.0902
      6 C2          1.7005   -1.7932   -1.3947 C.ar      1 <0>         0.3109
      7 C3          1.2843   -2.7926   -0.5215 C.ar      1 <0>        -0.2708
      8 C4          1.2740   -4.1076   -0.9325 C.ar      1 <0>        -0.0059
      9 C5          1.6814   -4.4363   -2.2255 C.ar      1 <0>        -0.1936
     10 C6          2.0985   -3.4323   -3.0997 C.ar      1 <0>        -0.0383
     11 C7          2.1022   -2.1180   -2.6861 C.ar      1 <0>        -0.1938
     12 C8          1.6717   -5.8498   -2.6697 C.ar      1 <0>         0.3018
     13 C9          2.0836   -6.1909   -3.9619 C.ar      1 <0>        -0.2924
     14 C10         2.0572   -7.5231   -4.3315 C.ar      1 <0>         0.1808
     15 N2          1.6461   -8.4297   -3.4584 N.ar      1 <0>        -0.5818
     16 C11         1.2612   -8.0784   -2.2400 C.ar      1 <0>         0.5612
     17 N3          1.2758   -6.8155   -1.8430 N.ar      1 <0>        -0.5747
     18 N4          0.8382   -9.0582   -1.3573 N.pl3     1 <0>        -0.6447
     19 C12         0.9319  -10.4098   -1.7137 C.ar      1 <0>         0.1223
     20 C13         2.0280  -10.8631   -2.4358 C.ar      1 <0>        -0.0599
     21 C14         2.1202  -12.1951   -2.7875 C.ar      1 <0>        -0.1776
     22 C15         1.1169  -13.0817   -2.4187 C.ar      1 <0>         0.1972
     23 C16         0.0209  -12.6284   -1.6962 C.ar      1 <0>        -0.1783
     24 C17        -0.0686  -11.2973   -1.3401 C.ar      1 <0>        -0.1009
     25 N5          1.2100  -14.4317   -2.7755 N.pl3     1 <0>        -0.6339
     26 C18         0.0997  -15.3555   -2.5063 C.3       1 <0>         0.1266
     27 C19        -0.2787  -16.0650   -3.8103 C.3       1 <0>        -0.1304
     28 C20         0.9647  -16.7324   -4.4025 C.3       1 <0>         0.1070
     29 C21         2.0157  -15.6662   -4.7201 C.3       1 <0>        -0.1699
     30 C22         2.4176  -14.9509   -3.4320 C.3       1 <0>         0.1254
     31 O3          0.6088  -17.4223   -5.6022 O.3       1 <0>        -0.5684
     32 H1          2.4411    2.0050    0.4789 H         1 <0>         0.1160
     33 H2          0.7653    2.1954   -0.0901 H         1 <0>         0.1160
     34 H3          1.1042    2.0666    1.6525 H         1 <0>         0.1027
     35 H4          0.9693   -2.5376    0.4796 H         1 <0>         0.1057
     36 H5          0.9510   -4.8833   -0.2540 H         1 <0>         0.1151
     37 H6          2.4144   -3.6845   -4.1012 H         1 <0>         0.1120
     38 H7          2.4211   -1.3399   -3.3638 H         1 <0>         0.1172
     39 H8          2.4142   -5.4316   -4.6550 H         1 <0>         0.1417
     40 H9          2.3683   -7.8209   -5.3219 H         1 <0>         0.1602
     41 H10         0.4771   -8.8087   -0.4923 H         1 <0>         0.4189
     42 H11         2.8083  -10.1736   -2.7226 H         1 <0>         0.1292
     43 H12         2.9723  -12.5475   -3.3496 H         1 <0>         0.1217
     44 H13        -0.7594  -13.3178   -1.4094 H         1 <0>         0.1228
     45 H14        -0.9188  -10.9457   -0.7744 H         1 <0>         0.1224
     46 H15         0.4092  -16.0928   -1.7656 H         1 <0>         0.0610
     47 H16        -0.7581  -14.7966   -2.1322 H         1 <0>         0.0895
     48 H17        -1.0357  -16.8222   -3.6060 H         1 <0>         0.0786
     49 H18        -0.6735  -15.3371   -4.5191 H         1 <0>         0.0746
     50 H19         1.3733  -17.4421   -3.6832 H         1 <0>         0.0545
     51 H20         2.8917  -16.1396   -5.1634 H         1 <0>         0.0740
     52 H21         1.5993  -14.9421   -5.4204 H         1 <0>         0.0760
     53 H22         3.0887  -14.1252   -3.6684 H         1 <0>         0.0875
     54 H23         2.9203  -15.6545   -2.7684 H         1 <0>         0.0598
     55 H24         1.3498  -17.8701   -6.0330 H         1 <0>         0.3775
@<TRIPOS>BOND
     1    1    2 1
     2    1   32 1
     3    1   33 1
     4    1   34 1
     5    2    3 2
     6    2    4 2
     7    2    5 1
     8    5    6 1
     9    6   11 ar
    10    6    7 ar
    11    7    8 ar
    12    7   35 1
    13    8    9 ar
    14    8   36 1
    15    9   10 ar
    16    9   12 1
    17   10   11 ar
    18   10   37 1
    19   11   38 1
    20   12   17 ar
    21   12   13 ar
    22   13   14 ar
    23   13   39 1
    24   14   15 ar
    25   14   40 1
    26   15   16 ar
    27   16   17 ar
    28   16   18 1
    29   18   19 1
    30   18   41 1
    31   19   24 ar
    32   19   20 ar
    33   20   21 ar
    34   20   42 1
    35   21   22 ar
    36   21   43 1
    37   22   23 ar
    38   22   25 1
    39   23   24 ar
    40   23   44 1
    41   24   45 1
    42   25   30 1
    43   25   26 1
    44   26   27 1
    45   26   46 1
    46   26   47 1
    47   27   28 1
    48   27   48 1
    49   27   49 1
    50   28   29 1
    51   28   31 1
    52   28   50 1
    53   29   30 1
    54   29   51 1
    55   29   52 1
    56   30   53 1
    57   30   54 1
    58   31   55 1
@<TRIPOS>MOLECULE
CHEMBL412099
   39    43     0     0     0
SMALL
USER_CHARGES

@<TRIPOS>ATOM
      1 C1         -0.0156    1.3697    0.1106 C.ar      1 <0>        -0.1053
      2 C2          1.1706    2.0921    0.1299 C.ar      1 <0>        -0.1056
      3 C3          2.3767    1.4544    0.0910 C.ar      1 <0>        -0.1095
      4 C4          2.4273    0.0561    0.0308 C.ar      1 <0>        -0.0133
      5 C5          1.2244   -0.6809    0.0110 C.ar      1 <0>        -0.0195
      6 C6          0.0026   -0.0052    0.0517 C.ar      1 <0>        -0.0989
      7 C7          1.2694   -2.1483   -0.0526 C.ar      1 <0>        -0.0285
      8 C8          0.0901   -2.8977   -0.0736 C.ar      1 <0>        -0.0940
      9 C9          0.1561   -4.2721   -0.1339 C.ar      1 <0>        -0.0280
     10 C10         1.3854   -4.9186   -0.1734 C.ar      1 <0>        -0.1035
     11 C11         2.5495   -4.2051   -0.1533 C.ar      1 <0>        -0.0757
     12 C12         2.5125   -2.8091   -0.0933 C.ar      1 <0>         0.0107
     13 C13         3.7593   -2.0302   -0.0721 C.ar      1 <0>         0.0669
     14 C14         3.7111   -0.6406   -0.0118 C.ar      1 <0>         0.0597
     15 N1          5.0147   -0.2044   -0.0060 N.pl3     1 <0>        -0.5563
     16 H1          5.3141    0.7175    0.0308 H         1 <0>         0.4216
     17 C15         5.8102   -1.3160   -0.0617 C.2       1 <0>         0.2420
     18 N2          5.0535   -2.3894   -0.1003 N.2       1 <0>        -0.4305
     19 C16         7.2843   -1.3104   -0.0765 C.ar      1 <0>         0.0761
     20 C17         7.9890   -0.0961   -0.1765 C.ar      1 <0>        -0.0284
     21 C18         9.3841   -0.1057   -0.1889 C.ar      1 <0>        -0.0337
     22 C19        10.0737   -1.2997   -0.1036 C.ar      1 <0>        -0.1064
     23 C20         9.3951   -2.4990   -0.0054 C.ar      1 <0>        -0.0351
     24 C21         8.0001   -2.5189    0.0151 C.ar      1 <0>         0.0205
     25 C22         7.2999   -3.7633    0.1234 C.1       1 <0>         0.2469
     26 N3          6.7445   -4.7505    0.2094 N.1       1 <0>        -0.3728
     27 C23         7.2773    1.1434   -0.2656 C.1       1 <0>         0.2492
     28 N4          6.7127    2.1266   -0.3362 N.1       1 <0>        -0.3951
     29 Cl1        -1.3083   -5.2041   -0.1601 Cl        1 <0>        -0.0625
     30 H2         -0.9605    1.8915    0.1465 H         1 <0>         0.1333
     31 H3          1.1382    3.1706    0.1759 H         1 <0>         0.1309
     32 H4          3.2917    2.0279    0.1062 H         1 <0>         0.1203
     33 H5         -0.9242   -0.5595    0.0374 H         1 <0>         0.1373
     34 H6         -0.8686   -2.4015   -0.0425 H         1 <0>         0.1434
     35 H7          1.4206   -5.9970   -0.2202 H         1 <0>         0.1398
     36 H8          3.4987   -4.7193   -0.1837 H         1 <0>         0.1447
     37 H9          9.9274    0.8245   -0.2659 H         1 <0>         0.1509
     38 H10        11.1536   -1.2955   -0.1141 H         1 <0>         0.1548
     39 H11         9.9469   -3.4250    0.0598 H         1 <0>         0.1536
@<TRIPOS>BOND
     1    1    6 ar
     2    1    2 ar
     3    1   30 1
     4    2    3 ar
     5    2   31 1
     6    3    4 ar
     7    3   32 1
     8    4   14 ar
     9    4    5 ar
    10    5    6 ar
    11    5    7 ar
    12    6   33 1
    13    7   12 ar
    14    7    8 ar
    15    8    9 ar
    16    8   34 1
    17    9   10 ar
    18    9   29 1
    19   10   11 ar
    20   10   35 1
    21   11   12 ar
    22   11   36 1
    23   12   13 ar
    24   13   18 1
    25   13   14 ar
    26   14   15 1
    27   15   16 1
    28   15   17 1
    29   17   18 2
    30   17   19 1
    31   19   24 ar
    32   19   20 ar
    33   20   21 ar
    34   20   27 1
    35   21   22 ar
    36   21   37 1
    37   22   23 ar
    38   22   38 1
    39   23   24 ar
    40   23   39 1
    41   24   25 1
    42   25   26 3
    43   27   28 3
@<TRIPOS>MOLECULE
CHEMBL162
   62    69     0     0     0
SMALL
USER_CHARGES

@<TRIPOS>ATOM
      1 C1         -0.1276    1.5938   -0.2902 C.3       1 <0>        -0.1687
      2 C2         -0.0844    0.0680   -0.1855 C.3       1 <0>         0.3345
      3 C3          0.5692   -0.4497   -1.4608 C.3       1 <0>         0.0405
      4 H1          1.4795    0.1163   -1.6584 H         1 <0>         0.1372
      5 C4          0.9165   -1.9328   -1.2885 C.3       1 <0>        -0.0062
      6 H2          1.3941   -2.3067   -2.1942 H         1 <0>         0.1555
      7 C5          1.8808   -2.0612   -0.1039 C.3       1 <0>        -0.1828
      8 C6          1.2106   -1.5234    1.1545 C.3       1 <0>         0.3001
      9 O1          0.6584   -0.2480    0.9698 O.3       1 <0>        -0.3232
     10 N1          0.2248   -2.4800    1.6600 N.pl3     1 <0>        -0.5368
     11 C7          0.4774   -3.5588    2.4701 C.ar      1 <0>         0.1470
     12 C8          1.6719   -4.0282    3.0159 C.ar      1 <0>        -0.1521
     13 C9          1.6013   -5.1613    3.8083 C.ar      1 <0>        -0.0582
     14 C10         0.4065   -5.8141    4.0588 C.ar      1 <0>        -0.1457
     15 C11        -0.7928   -5.3694    3.5296 C.ar      1 <0>        -0.0281
     16 C12        -0.7420   -4.2270    2.7281 C.ar      1 <0>        -0.1133
     17 C13        -1.7834   -3.4873    2.0211 C.ar      1 <0>         0.0272
     18 C14        -1.1387   -2.4235    1.3862 C.ar      1 <0>         0.0375
     19 C15        -1.8766   -1.5121    0.6225 C.ar      1 <0>         0.0893
     20 N2         -1.4701   -0.3965   -0.1042 N.pl3     1 <0>        -0.5183
     21 C16        -2.5609    0.1893   -0.7020 C.ar      1 <0>         0.1620
     22 C17        -2.6555    1.3256   -1.5046 C.ar      1 <0>        -0.1301
     23 C18        -3.9158    1.6704   -1.9636 C.ar      1 <0>        -0.0737
     24 C19        -5.0430    0.9315   -1.6503 C.ar      1 <0>        -0.1357
     25 C20        -4.9749   -0.2010   -0.8555 C.ar      1 <0>        -0.0503
     26 C21        -3.7134   -0.5626   -0.3834 C.ar      1 <0>        -0.1044
     27 C22        -3.2655   -1.6685    0.4924 C.ar      1 <0>        -0.0362
     28 C23        -3.9045   -2.7331    1.1195 C.ar      1 <0>        -0.0289
     29 C24        -3.1819   -3.6452    1.8815 C.ar      1 <0>        -0.1255
     30 C25        -4.1160   -4.6505    2.4114 C.2       1 <0>         0.5633
     31 O2         -3.7988   -5.5888    3.1172 O.2       1 <0>        -0.5106
     32 N3         -5.3694   -4.3854    2.0058 N.am      1 <0>        -0.7162
     33 C26        -5.3459   -3.1769    1.1740 C.3       1 <0>         0.1359
     34 N4         -0.3065   -2.7008   -1.0194 N.4       1 <0>        -0.5253
     35 C27         0.0148   -4.1335   -0.9747 C.3       1 <0>        -0.0497
     36 O3         -0.3352   -0.2957   -2.5564 O.3       1 <0>        -0.3613
     37 C28         0.3074   -0.0892   -3.8159 C.3       1 <0>         0.0162
     38 H3          0.8308    2.0068    0.0247 H         1 <0>         0.0984
     39 H4         -0.3256    1.8817   -1.3227 H         1 <0>         0.1037
     40 H5         -0.9185    1.9799    0.3528 H         1 <0>         0.0921
     41 H6          2.1400   -3.1098    0.0419 H         1 <0>         0.1233
     42 H7          2.7852   -1.4878   -0.3076 H         1 <0>         0.1455
     43 H8          1.9835   -1.4379    1.9183 H         1 <0>         0.1550
     44 H9          2.6113   -3.5296    2.8282 H         1 <0>         0.1364
     45 H10         2.5093   -5.5494    4.2456 H         1 <0>         0.1359
     46 H11         0.4102   -6.6943    4.6846 H         1 <0>         0.1352
     47 H12        -1.7231   -5.8814    3.7271 H         1 <0>         0.1602
     48 H13        -1.7841    1.9115   -1.7569 H         1 <0>         0.1438
     49 H14        -4.0225    2.5459   -2.5869 H         1 <0>         0.1335
     50 H15        -6.0015    1.2460   -2.0361 H         1 <0>         0.1333
     51 H16        -5.8562   -0.7761   -0.6128 H         1 <0>         0.1416
     52 H17        -6.1577   -4.9060    2.2257 H         1 <0>         0.4348
     53 H18        -5.9609   -2.3989    1.6262 H         1 <0>         0.1115
     54 H19        -5.7062   -3.4047    0.1708 H         1 <0>         0.1104
     55 H20        -0.6946   -2.4153   -0.1328 H         1 <0>         0.4186
     56 H21         0.7414   -4.3184   -0.1836 H         1 <0>         0.1191
     57 H22        -0.8927   -4.7033   -0.7750 H         1 <0>         0.1256
     58 H23         0.4340   -4.4418   -1.9324 H         1 <0>         0.1255
     59 H24        -0.4469    0.0185   -4.5954 H         1 <0>         0.1100
     60 H25         0.9142    0.8152   -3.7703 H         1 <0>         0.0633
     61 H26         0.9451   -0.9435   -4.0429 H         1 <0>         0.0514
     62 H27        -0.9792   -2.5296   -1.7517 H         1 <0>         0.4274
@<TRIPOS>BOND
     1    1    2 1
     2    1   38 1
     3    1   39 1
     4    1   40 1
     5    2    9 1
     6    2   20 1
     7    2    3 1
     8    3    4 1
     9    3    5 1
    10    3   36 1
    11    5    6 1
    12    5    7 1
    13    5   34 1
    14    7    8 1
    15    7   41 1
    16    7   42 1
    17    8    9 1
    18    8   10 1
    19    8   43 1
    20   10   18 1
    21   10   11 1
    22   11   16 ar
    23   11   12 ar
    24   12   13 ar
    25   12   44 1
    26   13   14 ar
    27   13   45 1
    28   14   15 ar
    29   14   46 1
    30   15   16 ar
    31   15   47 1
    32   16   17 1
    33   17   29 ar
    34   17   18 ar
    35   18   19 ar
    36   19   27 ar
    37   19   20 1
    38   20   21 1
    39   21   26 ar
    40   21   22 ar
    41   22   23 ar
    42   22   48 1
    43   23   24 ar
    44   23   49 1
    45   24   25 ar
    46   24   50 1
    47   25   26 ar
    48   25   51 1
    49   26   27 1
    50   27   28 ar
    51   28   33 1
    52   28   29 ar
    53   29   30 1
    54   30   31 2
    55   30   32 am
    56   32   33 1
    57   32   52 1
    58   33   53 1
    59   33   54 1
    60   34   35 1
    61   34   55 1
    62   34   62 1
    63   35   56 1
    64   35   57 1
    65   35   58 1
    66   36   37 1
    67   37   59 1
    68   37   60 1
    69   37   61 1
@<TRIPOS>MOLECULE
CHEMBL162__1
   61    68     0     0     0
SMALL
USER_CHARGES

@<TRIPOS>ATOM
      1 C1         -0.0567    1.5513   -0.0894 C.3       1 <0>        -0.1681
      2 C2         -0.0278    0.0218   -0.0599 C.3       1 <0>         0.3623
      3 C3          0.5811   -0.4397   -1.3782 C.3       1 <0>         0.0679
      4 H1          1.4914    0.1262   -1.5761 H         1 <0>         0.0865
      5 C4          0.9165   -1.9328   -1.2885 C.3       1 <0>         0.0550
      6 H2          1.3622   -2.2669   -2.2254 H         1 <0>         0.0644
      7 C5          1.9146   -2.1282   -0.1417 C.3       1 <0>        -0.1713
      8 C6          1.2889   -1.6457    1.1613 C.3       1 <0>         0.3303
      9 O1          0.7459   -0.3574    1.0554 O.3       1 <0>        -0.3432
     10 N1          0.3079   -2.6158    1.6500 N.pl3     1 <0>        -0.5147
     11 C7          0.5725   -3.7353    2.3988 C.ar      1 <0>         0.1480
     12 C8          1.7775   -4.2425    2.8844 C.ar      1 <0>        -0.1567
     13 C9          1.7179   -5.4120    3.6229 C.ar      1 <0>        -0.0771
     14 C10         0.5239   -6.0644    3.8782 C.ar      1 <0>        -0.1623
     15 C11        -0.6857   -5.5826    3.4081 C.ar      1 <0>        -0.0380
     16 C12        -0.6461   -4.4031    2.6615 C.ar      1 <0>        -0.1052
     17 C13        -1.6998   -3.6196    2.0235 C.ar      1 <0>        -0.0146
     18 C14        -1.0625   -2.5326    1.4212 C.ar      1 <0>         0.1328
     19 C15        -1.8127   -1.5778    0.7254 C.ar      1 <0>         0.2189
     20 N2         -1.4156   -0.4323    0.0413 N.pl3     1 <0>        -0.4798
     21 C16        -2.5171    0.1927   -0.4937 C.ar      1 <0>         0.1719
     22 C17        -2.6230    1.3676   -1.2371 C.ar      1 <0>        -0.1371
     23 C18        -3.8926    1.7468   -1.6400 C.ar      1 <0>        -0.0918
     24 C19        -5.0181    1.0048   -1.3284 C.ar      1 <0>        -0.1543
     25 C20        -4.9390   -0.1657   -0.5916 C.ar      1 <0>        -0.0609
     26 C21        -3.6680   -0.5623   -0.1765 C.ar      1 <0>        -0.0961
     27 C22        -3.2066   -1.7140    0.6307 C.ar      1 <0>        -0.0806
     28 C23        -3.8384   -2.8014    1.2249 C.ar      1 <0>        -0.0396
     29 C24        -3.1037   -3.7566    1.9194 C.ar      1 <0>        -0.1488
     30 C25        -4.0327   -4.7771    2.4285 C.2       1 <0>         0.5678
     31 O2         -3.7051   -5.7517    3.0781 O.2       1 <0>        -0.5303
     32 N3         -5.2947   -4.4802    2.0748 N.am      1 <0>        -0.7263
     33 C26        -5.2825   -3.2330    1.3021 C.3       1 <0>         0.1443
     34 N4         -0.3065   -2.7008   -1.0194 N.3       1 <0>        -0.6725
     35 C27        -0.9816   -3.0711   -2.2704 C.3       1 <0>         0.0321
     36 O3         -0.3541   -0.2236   -2.4368 O.3       1 <0>        -0.3500
     37 C28         0.2525    0.0376   -3.7040 C.3       1 <0>         0.0254
     38 H3          0.9143    1.9390    0.2190 H         1 <0>         0.0847
     39 H4         -0.2789    1.8910   -1.1010 H         1 <0>         0.0945
     40 H5         -0.8258    1.9134    0.5927 H         1 <0>         0.0811
     41 H6          2.1661   -3.1852   -0.0547 H         1 <0>         0.0955
     42 H7          2.8189   -1.5546   -0.3450 H         1 <0>         0.1024
     43 H8          2.0854   -1.6051    1.9042 H         1 <0>         0.1256
     44 H9          2.7165   -3.7447    2.6923 H         1 <0>         0.1264
     45 H10         2.6343   -5.8299    4.0129 H         1 <0>         0.1227
     46 H11         0.5364   -6.9739    4.4603 H         1 <0>         0.1222
     47 H12        -1.6153   -6.0942    3.6091 H         1 <0>         0.1517
     48 H13        -1.7529    1.9564   -1.4875 H         1 <0>         0.1345
     49 H14        -4.0081    2.6526   -2.2167 H         1 <0>         0.1197
     50 H15        -5.9842    1.3471   -1.6689 H         1 <0>         0.1193
     51 H16        -5.8191   -0.7431   -0.3501 H         1 <0>         0.1299
     52 H17        -6.0819   -5.0031    2.2935 H         1 <0>         0.4244
     53 H18        -5.8747   -2.4718    1.8101 H         1 <0>         0.0969
     54 H19        -5.6755   -3.4081    0.3006 H         1 <0>         0.0963
     55 H20        -0.1054   -3.5172   -0.4616 H         1 <0>         0.3444
     56 H21        -1.8838   -3.6387   -2.0422 H         1 <0>         0.0645
     57 H22        -1.2495   -2.1685   -2.8197 H         1 <0>         0.0818
     58 H23        -0.3126   -3.6808   -2.8776 H         1 <0>         0.0150
     59 H24        -0.5237    0.1905   -4.4538 H         1 <0>         0.0929
     60 H25         0.8707    0.9325   -3.6333 H         1 <0>         0.0448
     61 H26         0.8732   -0.8111   -3.9915 H         1 <0>         0.0400
@<TRIPOS>BOND
     1    1    2 1
     2    1   38 1
     3    1   39 1
     4    1   40 1
     5    2    9 1
     6    2   20 1
     7    2    3 1
     8    3    4 1
     9    3    5 1
    10    3   36 1
    11    5    6 1
    12    5    7 1
    13    5   34 1
    14    7    8 1
    15    7   41 1
    16    7   42 1
    17    8    9 1
    18    8   10 1
    19    8   43 1
    20   10   18 1
    21   10   11 1
    22   11   16 ar
    23   11   12 ar
    24   12   13 ar
    25   12   44 1
    26   13   14 ar
    27   13   45 1
    28   14   15 ar
    29   14   46 1
    30   15   16 ar
    31   15   47 1
    32   16   17 1
    33   17   29 ar
    34   17   18 ar
    35   18   19 ar
    36   19   27 ar
    37   19   20 1
    38   20   21 1
    39   21   26 ar
    40   21   22 ar
    41   22   23 ar
    42   22   48 1
    43   23   24 ar
    44   23   49 1
    45   24   25 ar
    46   24   50 1
    47   25   26 ar
    48   25   51 1
    49   26   27 1
    50   27   28 ar
    51   28   33 1
    52   28   29 ar
    53   29   30 1
    54   30   31 2
    55   30   32 am
    56   32   33 1
    57   32   52 1
    58   33   53 1
    59   33   54 1
    60   34   35 1
    61   34   55 1
    62   35   56 1
    63   35   57 1
    64   35   58 1
    65   36   37 1
    66   37   59 1
    67   37   60 1
    68   37   61 1
@<TRIPOS>MOLECULE
CHEMBL1093749
   56    59     0     0     0
SMALL
USER_CHARGES

@<TRIPOS>ATOM
      1 C1         -0.0178    1.4608    0.0101 C.3       1 <0>         0.0814
      2 N1          0.0021   -0.0041    0.0020 N.pl3     1 <0>        -1.1199
      3 S1          0.7421   -0.8289    1.2326 S.o2      1 <0>         2.6938
      4 O1          0.5703   -2.2120    0.9554 O.2       1 <0>        -0.9562
      5 O2          2.0239   -0.2396    1.4033 O.2       1 <0>        -0.9532
      6 C2         -0.1663   -0.4937    2.7047 C.ar      1 <0>        -0.6736
      7 C3          0.1750    0.5908    3.4930 C.ar      1 <0>        -0.0207
      8 C4         -0.5326    0.8584    4.6469 C.ar      1 <0>        -0.1244
      9 C5         -1.5942    0.0333    5.0177 C.ar      1 <0>         0.0184
     10 C6         -1.9338   -1.0582    4.2186 C.ar      1 <0>        -0.1015
     11 C7         -1.2217   -1.3127    3.0645 C.ar      1 <0>        -0.0219
     12 C8         -2.3576    0.3148    6.2555 C.ar      1 <0>        -0.0323
     13 C9         -1.6949    0.5352    7.4500 C.ar      1 <0>        -0.0740
     14 C10        -2.4045    0.7999    8.6156 C.ar      1 <0>        -0.0962
     15 C11        -3.7661    0.8493    8.6155 C.ar      1 <0>        -0.0717
     16 C12        -4.4802    0.6318    7.4255 C.ar      1 <0>         0.0767
     17 C13        -3.7725    0.3668    6.2266 C.ar      1 <0>         0.1030
     18 N2         -4.4439    0.1643    5.0915 N.ar      1 <0>        -0.4135
     19 C14        -5.7656    0.2184    5.0938 C.ar      1 <0>         0.1486
     20 C15        -6.4655    0.4883    6.2846 C.ar      1 <0>         0.0940
     21 N3         -5.8189    0.6768    7.4098 N.ar      1 <0>        -0.4145
     22 C16        -6.5138   -0.0061    3.8350 C.ar      1 <0>         0.0192
     23 C17        -5.8342   -0.3815    2.6764 C.ar      1 <0>        -0.1886
     24 C18        -6.5345   -0.5906    1.5016 C.ar      1 <0>         0.1459
     25 C19        -7.9159   -0.4267    1.4756 C.ar      1 <0>         0.0479
     26 C20        -8.5956   -0.0522    2.6304 C.ar      1 <0>         0.1501
     27 C21        -7.8992    0.1522    3.8085 C.ar      1 <0>        -0.2103
     28 O3         -9.9458    0.1079    2.6027 O.3       1 <0>        -0.2984
     29 C22       -10.5787    0.4934    3.8245 C.3       1 <0>         0.0211
     30 O4         -8.6027   -0.6323    0.3198 O.3       1 <0>        -0.3119
     31 C23        -9.0816   -1.9565    0.0765 C.3       1 <0>         0.0354
     32 O5         -5.8722   -0.9563    0.3714 O.3       1 <0>        -0.2978
     33 C24        -4.4545   -1.1059    0.4700 C.3       1 <0>         0.0203
     34 H1          1.0048    1.8381    0.0023 H         1 <0>         0.0705
     35 H2         -0.5450    1.8219   -0.8730 H         1 <0>         0.0857
     36 H3         -0.5280    1.8123    0.9069 H         1 <0>         0.0600
     37 H4         -0.4183   -0.4908   -0.7241 H         1 <0>         0.4201
     38 H5          0.9972    1.2290    3.2047 H         1 <0>         0.1440
     39 H6         -0.2648    1.7049    5.2618 H         1 <0>         0.1358
     40 H7         -2.7546   -1.7008    4.5008 H         1 <0>         0.1316
     41 H8         -1.4862   -2.1552    2.4427 H         1 <0>         0.1417
     42 H9         -0.6158    0.5007    7.4771 H         1 <0>         0.1429
     43 H10        -1.8673    0.9689    9.5372 H         1 <0>         0.1441
     44 H11        -4.2978    1.0559    9.5326 H         1 <0>         0.1451
     45 H12        -7.5447    0.5302    6.2736 H         1 <0>         0.1767
     46 H13        -4.7618   -0.5085    2.6961 H         1 <0>         0.1484
     47 H14        -8.4276    0.4385    4.7058 H         1 <0>         0.1418
     48 H15       -10.3891   -0.2628    4.5863 H         1 <0>         0.0589
     49 H16       -10.1769    1.4511    4.1553 H         1 <0>         0.0599
     50 H17       -11.6528    0.5860    3.6639 H         1 <0>         0.1063
     51 H18        -9.7608   -2.2500    0.8769 H         1 <0>         0.0460
     52 H19        -9.6103   -1.9823   -0.8764 H         1 <0>         0.0951
     53 H20        -8.2390   -2.6472    0.0433 H         1 <0>         0.0460
     54 H21        -4.0518   -1.3992   -0.4994 H         1 <0>         0.1065
     55 H22        -4.0096   -0.1593    0.7769 H         1 <0>         0.0595
     56 H23        -4.2206   -1.8734    1.2079 H         1 <0>         0.0587
@<TRIPOS>BOND
     1    1    2 1
     2    1   34 1
     3    1   35 1
     4    1   36 1
     5    2    3 1
     6    2   37 1
     7    3    4 2
     8    3    5 2
     9    3    6 1
    10    6   11 ar
    11    6    7 ar
    12    7    8 ar
    13    7   38 1
    14    8    9 ar
    15    8   39 1
    16    9   10 ar
    17    9   12 1
    18   10   11 ar
    19   10   40 1
    20   11   41 1
    21   12   17 ar
    22   12   13 ar
    23   13   14 ar
    24   13   42 1
    25   14   15 ar
    26   14   43 1
    27   15   16 ar
    28   15   44 1
    29   16   21 ar
    30   16   17 ar
    31   17   18 ar
    32   18   19 ar
    33   19   20 ar
    34   19   22 1
    35   20   21 ar
    36   20   45 1
    37   22   27 ar
    38   22   23 ar
    39   23   24 ar
    40   23   46 1
    41   24   25 ar
    42   24   32 1
    43   25   26 ar
    44   25   30 1
    45   26   27 ar
    46   26   28 1
    47   27   47 1
    48   28   29 1
    49   29   48 1
    50   29   49 1
    51   29   50 1
    52   30   31 1
    53   31   51 1
    54   31   52 1
    55   31   53 1
    56   32   33 1
    57   33   54 1
    58   33   55 1
    59   33   56 1
@<TRIPOS>MOLECULE
CHEMBL1082023
   72    77     0     0     0
SMALL
USER_CHARGES

@<TRIPOS>ATOM
      1 C1         -1.0413    1.7863   -0.3567 C.3       1 <0>        -0.1370
      2 C2         -0.7252    0.3129   -0.3557 C.ar      1 <0>        -0.0271
      3 C3         -0.7909   -0.4062   -1.5277 C.ar      1 <0>        -0.1060
      4 C4         -0.4978   -1.7704   -1.5271 C.ar      1 <0>        -0.0277
      5 C5         -0.1383   -2.4074   -0.3383 C.ar      1 <0>        -0.1097
      6 C6         -0.0725   -1.6904    0.8344 C.ar      1 <0>        -0.0811
      7 C7         -0.3599   -0.3226    0.8337 C.ar      1 <0>        -0.1278
      8 C8         -0.2832    0.4491    2.0905 C.2       1 <0>         0.5668
      9 O1         -1.2062    1.1690    2.4190 O.2       1 <0>        -0.5232
     10 N1          0.8100    0.3555    2.8732 N.am      1 <0>        -0.6116
     11 C9          1.9915   -0.4052    2.4363 C.3       1 <0>         0.0686
     12 C10         3.2289    0.4833    2.6073 C.3       1 <0>         0.0470
     13 O2          3.2607    0.9943    3.9421 O.3       1 <0>        -0.3769
     14 C11         2.1502    1.8308    4.2752 C.3       1 <0>         0.0472
     15 C12         0.8597    1.0159    4.1872 C.3       1 <0>         0.0752
     16 C13        -0.5688   -2.5435   -2.7891 C.ar      1 <0>        -0.0116
     17 C14        -1.6961   -2.4542   -3.6027 C.ar      1 <0>        -0.0891
     18 C15        -1.7650   -3.1743   -4.7816 C.ar      1 <0>        -0.1038
     19 C16        -0.7210   -3.9890   -5.1675 C.ar      1 <0>        -0.0722
     20 C17         0.4172   -4.0920   -4.3660 C.ar      1 <0>         0.0561
     21 C18         0.4965   -3.3611   -3.1726 C.ar      1 <0>         0.0135
     22 O3          1.6972   -3.6520   -2.6241 O.3       1 <0>        -0.2206
     23 C19         2.3323   -4.5145   -3.4375 C.2       1 <0>         0.4927
     24 N2          1.5804   -4.7916   -4.4723 N.2       1 <0>        -0.5217
     25 N3          3.5853   -5.0388   -3.2088 N.pl3     1 <0>        -0.6173
     26 C20         4.1298   -5.9683   -4.1043 C.ar      1 <0>         0.1318
     27 C21         3.7987   -5.9106   -5.4517 C.ar      1 <0>        -0.0743
     28 C22         4.3353   -6.8267   -6.3343 C.ar      1 <0>        -0.1599
     29 C23         5.2065   -7.8058   -5.8747 C.ar      1 <0>         0.1816
     30 C24         5.5379   -7.8632   -4.5272 C.ar      1 <0>        -0.1611
     31 C25         5.0050   -6.9440   -3.6455 C.ar      1 <0>        -0.0963
     32 N4          5.7500   -8.7347   -6.7691 N.pl3     1 <0>        -0.6451
     33 C26         6.5642   -9.8614   -6.2877 C.3       1 <0>         0.1004
     34 C27         6.0218  -11.1528   -6.9088 C.3       1 <0>        -0.0233
     35 N5          5.9835  -11.0136   -8.3701 N.4       1 <0>        -0.3837
     36 C28         5.0297   -9.9629   -8.7475 C.3       1 <0>        -0.0233
     37 C29         5.5182   -8.6156   -8.2170 C.3       1 <0>         0.0987
     38 C30         5.5682  -12.2881   -8.9709 C.3       1 <0>        -0.0471
     39 H1         -0.1162    2.3563   -0.4426 H         1 <0>         0.0719
     40 H2         -1.6906    2.0181   -1.2010 H         1 <0>         0.0732
     41 H3         -1.5458    2.0504    0.5728 H         1 <0>         0.0949
     42 H4         -1.0697    0.0857   -2.4478 H         1 <0>         0.1353
     43 H5          0.0881   -3.4634   -0.3388 H         1 <0>         0.1266
     44 H6          0.2054   -2.1835    1.7542 H         1 <0>         0.1312
     45 H7          2.0967   -1.3024    3.0463 H         1 <0>         0.0807
     46 H8          1.8817   -0.6840    1.3883 H         1 <0>         0.0981
     47 H9          4.1278   -0.1044    2.4209 H         1 <0>         0.1081
     48 H10         3.1822    1.3123    1.9011 H         1 <0>         0.0571
     49 H11         2.2730    2.2123    5.2888 H         1 <0>         0.1115
     50 H12         2.0996    2.6646    3.5751 H         1 <0>         0.0577
     51 H13         0.0007    1.6777    4.2981 H         1 <0>         0.1057
     52 H14         0.8489    0.2642    4.9765 H         1 <0>         0.0800
     53 H15        -2.5203   -1.8201   -3.3114 H         1 <0>         0.1446
     54 H16        -2.6437   -3.0983   -5.4050 H         1 <0>         0.1426
     55 H17        -0.7844   -4.5476   -6.0897 H         1 <0>         0.1367
     56 H18         4.0908   -4.7643   -2.4277 H         1 <0>         0.4286
     57 H19         3.1212   -5.1492   -5.8091 H         1 <0>         0.1536
     58 H20         4.0773   -6.7822   -7.3821 H         1 <0>         0.1277
     59 H21         6.2151   -8.6248   -4.1697 H         1 <0>         0.1292
     60 H22         5.2656   -6.9863   -2.5983 H         1 <0>         0.1336
     61 H23         7.6020   -9.7180   -6.5884 H         1 <0>         0.0875
     62 H24         6.4995   -9.9221   -5.2013 H         1 <0>         0.1259
     63 H25         6.6712  -11.9860   -6.6401 H         1 <0>         0.1406
     64 H26         5.0153  -11.3411   -6.5352 H         1 <0>         0.1323
     65 H27         4.9481   -9.9192   -9.8335 H         1 <0>         0.1412
     66 H28         4.0533  -10.1871   -8.3181 H         1 <0>         0.1325
     67 H29         4.7624   -7.8532   -8.4055 H         1 <0>         0.1272
     68 H30         6.4487   -8.3444   -8.7157 H         1 <0>         0.0875
     69 H31         4.5773  -12.5567   -8.6048 H         1 <0>         0.1216
     70 H32         5.5394  -12.1861  -10.0558 H         1 <0>         0.1251
     71 H33         6.2799  -13.0674   -8.6981 H         1 <0>         0.1250
     72 H34         6.9024  -10.7690   -8.7076 H         1 <0>         0.4247
@<TRIPOS>BOND
     1    1    2 1
     2    1   39 1
     3    1   40 1
     4    1   41 1
     5    2    7 ar
     6    2    3 ar
     7    3    4 ar
     8    3   42 1
     9    4    5 ar
    10    4   16 1
    11    5    6 ar
    12    5   43 1
    13    6    7 ar
    14    6   44 1
    15    7    8 1
    16    8    9 2
    17    8   10 am
    18   10   15 1
    19   10   11 1
    20   11   12 1
    21   11   45 1
    22   11   46 1
    23   12   13 1
    24   12   47 1
    25   12   48 1
    26   13   14 1
    27   14   15 1
    28   14   49 1
    29   14   50 1
    30   15   51 1
    31   15   52 1
    32   16   21 ar
    33   16   17 ar
    34   17   18 ar
    35   17   53 1
    36   18   19 ar
    37   18   54 1
    38   19   20 ar
    39   19   55 1
    40   20   24 1
    41   20   21 ar
    42   21   22 1
    43   22   23 1
    44   23   24 2
    45   23   25 1
    46   25   26 1
    47   25   56 1
    48   26   31 ar
    49   26   27 ar
    50   27   28 ar
    51   27   57 1
    52   28   29 ar
    53   28   58 1
    54   29   30 ar
    55   29   32 1
    56   30   31 ar
    57   30   59 1
    58   31   60 1
    59   32   37 1
    60   32   33 1
    61   33   34 1
    62   33   61 1
    63   33   62 1
    64   34   35 1
    65   34   63 1
    66   34   64 1
    67   35   36 1
    68   35   38 1
    69   35   72 1
    70   36   37 1
    71   36   65 1
    72   36   66 1
    73   37   67 1
    74   37   68 1
    75   38   69 1
    76   38   70 1
    77   38   71 1
@<TRIPOS>MOLECULE
CHEMBL1082023__1
   71    76     0     0     0
SMALL
USER_CHARGES

@<TRIPOS>ATOM
      1 C1         -1.0273    1.7699   -0.3663 C.3       1 <0>        -0.1354
      2 C2         -0.7078    0.2972   -0.3618 C.ar      1 <0>        -0.0287
      3 C3         -0.7697   -0.4243   -1.5324 C.ar      1 <0>        -0.1073
      4 C4         -0.4734   -1.7879   -1.5286 C.ar      1 <0>        -0.0214
      5 C5         -0.1145   -2.4216   -0.3379 C.ar      1 <0>        -0.1095
      6 C6         -0.0525   -1.7021    0.8335 C.ar      1 <0>        -0.0812
      7 C7         -0.3430   -0.3351    0.8295 C.ar      1 <0>        -0.1318
      8 C8         -0.2704    0.4393    2.0849 C.2       1 <0>         0.5686
      9 O1         -1.1956    1.1577    2.4103 O.2       1 <0>        -0.5260
     10 N1          0.8216    0.3497    2.8698 N.am      1 <0>        -0.6118
     11 C9          2.0057   -0.4090    2.4365 C.3       1 <0>         0.0681
     12 C10         3.2407    0.4827    2.6080 C.3       1 <0>         0.0470
     13 O2          3.2689    0.9963    3.9419 O.3       1 <0>        -0.3774
     14 C11         2.1558    1.8308    4.2714 C.3       1 <0>         0.0474
     15 C12         0.8673    1.0128    4.1826 C.3       1 <0>         0.0756
     16 C13        -0.5403   -2.5636   -2.7892 C.ar      1 <0>        -0.0154
     17 C14        -1.6664   -2.4787   -3.6050 C.ar      1 <0>        -0.0948
     18 C15        -1.7316   -3.2012   -4.7825 C.ar      1 <0>        -0.1062
     19 C16        -0.6850   -4.0143   -5.1650 C.ar      1 <0>        -0.0728
     20 C17         0.4521   -4.1129   -4.3613 C.ar      1 <0>         0.0620
     21 C18         0.5275   -3.3795   -3.1691 C.ar      1 <0>         0.0093
     22 O3          1.7279   -3.6666   -2.6180 O.3       1 <0>        -0.2253
     23 C19         2.3665   -4.5291   -3.4285 C.2       1 <0>         0.4987
     24 N2          1.6171   -4.8101   -4.4641 N.2       1 <0>        -0.5231
     25 N3          3.6203   -5.0500   -3.1966 N.pl3     1 <0>        -0.6123
     26 C20         4.1685   -5.9801   -4.0892 C.ar      1 <0>         0.0960
     27 C21         3.8397   -5.9258   -5.4373 C.ar      1 <0>        -0.0675
     28 C22         4.3800   -6.8425   -6.3171 C.ar      1 <0>        -0.1777
     29 C23         5.2526   -7.8186   -5.8540 C.ar      1 <0>         0.2123
     30 C24         5.5817   -7.8726   -4.5058 C.ar      1 <0>        -0.1794
     31 C25         5.0452   -6.9528   -3.6269 C.ar      1 <0>        -0.0890
     32 N4          5.7998   -8.7480   -6.7456 N.pl3     1 <0>        -0.6306
     33 C26         6.6145   -9.8718   -6.2590 C.3       1 <0>         0.1262
     34 C27         6.0654  -11.1686   -6.8633 C.3       1 <0>         0.0380
     35 N5          6.0009  -11.0352   -8.3248 N.3       1 <0>        -0.5425
     36 C28         5.0675   -9.9728   -8.7222 C.3       1 <0>         0.0377
     37 C29         5.5706   -8.6305   -8.1937 C.3       1 <0>         0.1251
     38 C30         5.6432  -12.3131   -8.9548 C.3       1 <0>         0.0242
     39 H1         -0.1034    2.3419   -0.4516 H         1 <0>         0.0707
     40 H2         -1.6756    1.9984   -1.2122 H         1 <0>         0.0722
     41 H3         -1.5341    2.0346    0.5618 H         1 <0>         0.0936
     42 H4         -1.0480    0.0650   -2.4541 H         1 <0>         0.1348
     43 H5          0.1143   -3.4771   -0.3359 H         1 <0>         0.1278
     44 H6          0.2249   -2.1928    1.7547 H         1 <0>         0.1304
     45 H7          2.1118   -1.3048    3.0484 H         1 <0>         0.0810
     46 H8          1.8984   -0.6901    1.3888 H         1 <0>         0.0996
     47 H9          4.1412   -0.1033    2.4244 H         1 <0>         0.1091
     48 H10         3.1934    1.3103    1.9002 H         1 <0>         0.0572
     49 H11         2.2758    2.2146    5.2845 H         1 <0>         0.1101
     50 H12         2.1045    2.6632    3.5696 H         1 <0>         0.0571
     51 H13         0.0066    1.6728    4.2907 H         1 <0>         0.1047
     52 H14         0.8569    0.2626    4.9733 H         1 <0>         0.0791
     53 H15        -2.4927   -1.8458   -3.3164 H         1 <0>         0.1415
     54 H16        -2.6093   -3.1285   -5.4076 H         1 <0>         0.1401
     55 H17        -0.7454   -4.5748   -6.0861 H         1 <0>         0.1368
     56 H18         4.1237   -4.7728   -2.4151 H         1 <0>         0.4246
     57 H19         3.1611   -5.1668   -5.7975 H         1 <0>         0.1467
     58 H20         4.1237   -6.8007   -7.3655 H         1 <0>         0.1270
     59 H21         6.2600   -8.6319   -4.1455 H         1 <0>         0.1283
     60 H22         5.3040   -6.9925   -2.5791 H         1 <0>         0.1261
     61 H23         7.6506   -9.7338   -6.5681 H         1 <0>         0.0706
     62 H24         6.5573   -9.9216   -5.1717 H         1 <0>         0.0863
     63 H25         6.7225  -11.9982   -6.6024 H         1 <0>         0.0860
     64 H26         5.0663  -11.3582   -6.4709 H         1 <0>         0.0386
     65 H27         5.0009   -9.9352   -9.8095 H         1 <0>         0.0865
     66 H28         4.0823  -10.1790   -8.3040 H         1 <0>         0.0385
     67 H29         4.8237   -7.8600   -8.3848 H         1 <0>         0.0877
     68 H30         6.5044   -8.3708   -8.6923 H         1 <0>         0.0706
     69 H31         4.6687  -12.6377   -8.5902 H         1 <0>         0.0260
     70 H32         5.6025  -12.1860  -10.0366 H         1 <0>         0.0705
     71 H33         6.3931  -13.0637   -8.7051 H         1 <0>         0.0707
@<TRIPOS>BOND
     1    1    2 1
     2    1   39 1
     3    1   40 1
     4    1   41 1
     5    2    7 ar
     6    2    3 ar
     7    3    4 ar
     8    3   42 1
     9    4    5 ar
    10    4   16 1
    11    5    6 ar
    12    5   43 1
    13    6    7 ar
    14    6   44 1
    15    7    8 1
    16    8    9 2
    17    8   10 am
    18   10   15 1
    19   10   11 1
    20   11   12 1
    21   11   45 1
    22   11   46 1
    23   12   13 1
    24   12   47 1
    25   12   48 1
    26   13   14 1
    27   14   15 1
    28   14   49 1
    29   14   50 1
    30   15   51 1
    31   15   52 1
    32   16   21 ar
    33   16   17 ar
    34   17   18 ar
    35   17   53 1
    36   18   19 ar
    37   18   54 1
    38   19   20 ar
    39   19   55 1
    40   20   24 1
    41   20   21 ar
    42   21   22 1
    43   22   23 1
    44   23   24 2
    45   23   25 1
    46   25   26 1
    47   25   56 1
    48   26   31 ar
    49   26   27 ar
    50   27   28 ar
    51   27   57 1
    52   28   29 ar
    53   28   58 1
    54   29   30 ar
    55   29   32 1
    56   30   31 ar
    57   30   59 1
    58   31   60 1
    59   32   37 1
    60   32   33 1
    61   33   34 1
    62   33   61 1
    63   33   62 1
    64   34   35 1
    65   34   63 1
    66   34   64 1
    67   35   36 1
    68   35   38 1
    69   36   37 1
    70   36   65 1
    71   36   66 1
    72   37   67 1
    73   37   68 1
    74   38   69 1
    75   38   70 1
    76   38   71 1
@<TRIPOS>MOLECULE
CHEMBL1093191
   66    70     0     0     0
SMALL
USER_CHARGES

@<TRIPOS>ATOM
      1 C1         -0.0173    1.4248    0.0099 C.3       1 <0>         0.0214
      2 O1          0.0021   -0.0041    0.0020 O.3       1 <0>        -0.2992
      3 C2         -1.2011   -0.6379    0.0101 C.ar      1 <0>         0.1489
      4 C3         -2.3714    0.1002    0.0195 C.ar      1 <0>        -0.2120
      5 C4         -3.6051   -0.5502    0.0273 C.ar      1 <0>         0.0210
      6 C5         -3.6567   -1.9439    0.0257 C.ar      1 <0>        -0.1862
      7 C6         -2.4844   -2.6788    0.0163 C.ar      1 <0>         0.1471
      8 C7         -1.2546   -2.0282    0.0031 C.ar      1 <0>         0.0452
      9 O2         -0.1033   -2.7522   -0.0113 O.3       1 <0>        -0.3120
     10 C8          0.4575   -3.1043    1.2550 C.3       1 <0>         0.0352
     11 O3         -2.5343   -4.0379    0.0152 O.3       1 <0>        -0.3001
     12 C9         -3.8305   -4.6395    0.0240 C.3       1 <0>         0.0274
     13 C10        -4.8592    0.2384    0.0378 C.ar      1 <0>         0.1426
     14 C11        -4.8047    1.6403   -0.0724 C.ar      1 <0>         0.0936
     15 N1         -5.9055    2.3529   -0.0648 N.ar      1 <0>        -0.4179
     16 C12        -7.0934    1.7444    0.0483 C.ar      1 <0>         0.0780
     17 C13        -8.2858    2.4877    0.0582 C.ar      1 <0>        -0.0816
     18 C14        -9.4863    1.8544    0.1734 C.ar      1 <0>        -0.0930
     19 C15        -9.5612    0.4703    0.2836 C.ar      1 <0>        -0.0871
     20 C16        -8.4126   -0.3007    0.2782 C.ar      1 <0>        -0.0112
     21 C17        -7.1514    0.3330    0.1590 C.ar      1 <0>         0.0983
     22 N2         -6.0237   -0.3800    0.1452 N.ar      1 <0>        -0.4061
     23 C18        -8.5008   -1.7746    0.3964 C.ar      1 <0>        -0.0429
     24 C19        -7.8167   -2.5914   -0.5037 C.ar      1 <0>        -0.0749
     25 C20        -7.9024   -3.9637   -0.3881 C.ar      1 <0>        -0.1085
     26 C21        -8.6647   -4.5297    0.6180 C.ar      1 <0>        -0.0606
     27 C22        -9.3459   -3.7248    1.5137 C.ar      1 <0>        -0.1050
     28 C23        -9.2634   -2.3512    1.4119 C.ar      1 <0>        -0.0985
     29 C24        -8.7540   -6.0292    0.7386 C.3       1 <0>        -0.1026
     30 C25        -7.6518   -6.5273    1.6375 C.2       1 <0>         0.5185
     31 O4         -6.8706   -5.7421    2.1315 O.2       1 <0>        -0.5229
     32 N3         -7.5340   -7.8455    1.8924 N.am      1 <0>        -0.6199
     33 C26        -8.4660   -8.8179    1.2996 C.3       1 <0>         0.0699
     34 C27        -7.6465   -9.9358    0.6449 C.3       1 <0>         0.0457
     35 O5         -6.7104  -10.4512    1.5946 O.3       1 <0>        -0.3772
     36 C28        -5.7473   -9.4955    2.0449 C.3       1 <0>         0.0475
     37 C29        -6.4660   -8.3556    2.7668 C.3       1 <0>         0.0762
     38 H1          1.0053    1.8021    0.0021 H         1 <0>         0.1054
     39 H2         -0.5445    1.7859   -0.8732 H         1 <0>         0.0597
     40 H3         -0.5275    1.7763    0.9067 H         1 <0>         0.0584
     41 H4         -2.3295    1.1794    0.0211 H         1 <0>         0.1411
     42 H5         -4.6112   -2.4493    0.0321 H         1 <0>         0.1498
     43 H6          0.6884   -2.1980    1.8148 H         1 <0>         0.0455
     44 H7         -0.2591   -3.7048    1.8154 H         1 <0>         0.0455
     45 H8          1.3709   -3.6787    1.1007 H         1 <0>         0.0941
     46 H9         -4.3699   -4.3274    0.9182 H         1 <0>         0.0649
     47 H10        -4.3828   -4.3254   -0.8617 H         1 <0>         0.0557
     48 H11        -3.7274   -5.7246    0.0220 H         1 <0>         0.0997
     49 H12        -3.8482    2.1334   -0.1637 H         1 <0>         0.1751
     50 H13        -8.2503    3.5639   -0.0255 H         1 <0>         0.1424
     51 H14       -10.3955    2.4373    0.1797 H         1 <0>         0.1410
     52 H15       -10.5255   -0.0075    0.3745 H         1 <0>         0.1401
     53 H16        -7.2216   -2.1506   -1.2898 H         1 <0>         0.1210
     54 H17        -7.3735   -4.5972   -1.0848 H         1 <0>         0.1200
     55 H18        -9.9400   -4.1725    2.2966 H         1 <0>         0.1220
     56 H19        -9.7920   -1.7238    2.1143 H         1 <0>         0.1242
     57 H20        -9.7202   -6.3027    1.1627 H         1 <0>         0.1047
     58 H21        -8.6496   -6.4799   -0.2483 H         1 <0>         0.1037
     59 H22        -9.1031   -9.2374    2.0781 H         1 <0>         0.0815
     60 H23        -9.0813   -8.3248    0.5470 H         1 <0>         0.0964
     61 H24        -8.3138  -10.7346    0.3211 H         1 <0>         0.1092
     62 H25        -7.1098   -9.5374   -0.2161 H         1 <0>         0.0574
     63 H26        -5.0482   -9.9775    2.7283 H         1 <0>         0.1090
     64 H27        -5.2036   -9.0955    1.1890 H         1 <0>         0.0565
     65 H28        -5.7576   -7.5565    2.9854 H         1 <0>         0.1026
     66 H29        -6.8983   -8.7278    3.6956 H         1 <0>         0.0765
@<TRIPOS>BOND
     1    1    2 1
     2    1   38 1
     3    1   39 1
     4    1   40 1
     5    2    3 1
     6    3    8 ar
     7    3    4 ar
     8    4    5 ar
     9    4   41 1
    10    5    6 ar
    11    5   13 1
    12    6    7 ar
    13    6   42 1
    14    7    8 ar
    15    7   11 1
    16    8    9 1
    17    9   10 1
    18   10   43 1
    19   10   44 1
    20   10   45 1
    21   11   12 1
    22   12   46 1
    23   12   47 1
    24   12   48 1
    25   13   22 ar
    26   13   14 ar
    27   14   15 ar
    28   14   49 1
    29   15   16 ar
    30   16   21 ar
    31   16   17 ar
    32   17   18 ar
    33   17   50 1
    34   18   19 ar
    35   18   51 1
    36   19   20 ar
    37   19   52 1
    38   20   21 ar
    39   20   23 1
    40   21   22 ar
    41   23   28 ar
    42   23   24 ar
    43   24   25 ar
    44   24   53 1
    45   25   26 ar
    46   25   54 1
    47   26   27 ar
    48   26   29 1
    49   27   28 ar
    50   27   55 1
    51   28   56 1
    52   29   30 1
    53   29   57 1
    54   29   58 1
    55   30   31 2
    56   30   32 am
    57   32   37 1
    58   32   33 1
    59   33   34 1
    60   33   59 1
    61   33   60 1
    62   34   35 1
    63   34   61 1
    64   34   62 1
    65   35   36 1
    66   36   37 1
    67   36   63 1
    68   36   64 1
    69   37   65 1
    70   37   66 1
@<TRIPOS>MOLECULE
CHEMBL382752
   49    53     0     0     0
SMALL
USER_CHARGES

@<TRIPOS>ATOM
      1 C1         -1.8550    0.7480   -0.4921 C.ar      1 <0>        -0.1241
      2 C2         -3.0040    0.8020    0.2868 C.ar      1 <0>        -0.0837
      3 C3         -3.4177   -0.3246    0.9686 C.ar      1 <0>        -0.0813
      4 C4         -2.6846   -1.4883    0.8673 C.ar      1 <0>        -0.1060
      5 C5         -1.5125   -1.5703    0.0822 C.ar      1 <0>        -0.1035
      6 C6         -1.1230   -0.3915   -0.6011 C.ar      1 <0>        -0.0647
      7 C7         -0.8654   -2.8698    0.0888 C.2       1 <0>        -0.0704
      8 C8         -1.4107   -3.8728    0.8191 C.2       1 <0>        -0.1200
      9 S1         -2.8488   -3.1166    1.5524 S.3       1 <0>         0.0743
     10 C9         -0.9288   -5.2608    0.9709 C.ar      1 <0>         0.3018
     11 C10        -1.6286   -6.1734    1.7696 C.ar      1 <0>        -0.2630
     12 C11        -1.1387   -7.4613    1.8810 C.ar      1 <0>         0.1983
     13 N1         -0.0311   -7.7917    1.2346 N.ar      1 <0>        -0.5537
     14 C12         0.6118   -6.9080    0.4851 C.ar      1 <0>         0.5680
     15 N2          0.1761   -5.6662    0.3454 N.ar      1 <0>        -0.5533
     16 N3          1.7674   -7.2960   -0.1743 N.pl3     1 <0>        -0.6373
     17 C13         2.2220   -8.6078   -0.0688 C.ar      1 <0>         0.1909
     18 C14         3.5875   -8.8651    0.0132 C.ar      1 <0>        -0.1550
     19 C15         4.0401  -10.1607    0.1170 C.ar      1 <0>        -0.0361
     20 C16         3.1269  -11.2187    0.1406 C.ar      1 <0>        -0.1525
     21 C17         1.7562  -10.9569    0.0585 C.ar      1 <0>        -0.1040
     22 C18         1.3098   -9.6588   -0.0399 C.ar      1 <0>        -0.1203
     23 C19         3.6087  -12.6089    0.2513 C.2       1 <0>         0.5768
     24 O1          4.7884  -12.8297    0.4464 O.2       1 <0>        -0.5377
     25 N4          2.7412  -13.6339    0.1363 N.am      1 <0>        -0.6168
     26 C20         1.2803  -13.5117    0.0246 C.3       1 <0>         0.0880
     27 C21         0.7059  -14.9416   -0.0584 C.3       1 <0>        -0.1366
     28 C22         1.8267  -15.8040    0.5801 C.3       1 <0>        -0.1345
     29 C23         3.1005  -15.0631    0.0953 C.3       1 <0>         0.1036
     30 H1         -1.5385    1.6312   -1.0270 H         1 <0>         0.1310
     31 H2         -3.5695    1.7192    0.3586 H         1 <0>         0.1379
     32 H3         -4.3092   -0.2949    1.5776 H         1 <0>         0.1350
     33 H4         -0.2348   -0.3991   -1.2155 H         1 <0>         0.1288
     34 H5          0.0373   -3.0351   -0.4805 H         1 <0>         0.1481
     35 H6         -2.5296   -5.8780    2.2866 H         1 <0>         0.1493
     36 H7         -1.6536   -8.1903    2.4891 H         1 <0>         0.1781
     37 H8          2.2594   -6.6537   -0.7092 H         1 <0>         0.4262
     38 H9          4.2925   -8.0472   -0.0051 H         1 <0>         0.1328
     39 H10         5.0997  -10.3597    0.1799 H         1 <0>         0.1396
     40 H11         1.0481  -11.7722    0.0765 H         1 <0>         0.1621
     41 H12         0.2507   -9.4556   -0.0992 H         1 <0>         0.1386
     42 H13         0.8827  -13.0029    0.9028 H         1 <0>         0.0813
     43 H14         1.0227  -12.9558   -0.8768 H         1 <0>         0.0808
     44 H15        -0.2165  -15.0207    0.5169 H         1 <0>         0.0859
     45 H16         0.5405  -15.2311   -1.0962 H         1 <0>         0.0798
     46 H17         1.7553  -15.7945    1.6677 H         1 <0>         0.0781
     47 H18         1.8007  -16.8242    0.1972 H         1 <0>         0.0868
     48 H19         3.3519  -15.3620   -0.9224 H         1 <0>         0.0706
     49 H20         3.9347  -15.2640    0.7675 H         1 <0>         0.0817
@<TRIPOS>BOND
     1    1    6 ar
     2    1    2 ar
     3    1   30 1
     4    2    3 ar
     5    2   31 1
     6    3    4 ar
     7    3   32 1
     8    4    9 1
     9    4    5 ar
    10    5    6 ar
    11    5    7 1
    12    6   33 1
    13    7    8 2
    14    7   34 1
    15    8    9 1
    16    8   10 1
    17   10   15 ar
    18   10   11 ar
    19   11   12 ar
    20   11   35 1
    21   12   13 ar
    22   12   36 1
    23   13   14 ar
    24   14   15 ar
    25   14   16 1
    26   16   17 1
    27   16   37 1
    28   17   22 ar
    29   17   18 ar
    30   18   19 ar
    31   18   38 1
    32   19   20 ar
    33   19   39 1
    34   20   21 ar
    35   20   23 1
    36   21   22 ar
    37   21   40 1
    38   22   41 1
    39   23   24 2
    40   23   25 am
    41   25   29 1
    42   25   26 1
    43   26   27 1
    44   26   42 1
    45   26   43 1
    46   27   28 1
    47   27   44 1
    48   27   45 1
    49   28   29 1
    50   28   46 1
    51   28   47 1
    52   29   48 1
    53   29   49 1
@<TRIPOS>MOLECULE
CHEMBL1093468
   68    72     0     0     0
SMALL
USER_CHARGES

@<TRIPOS>ATOM
      1 C1         -0.0173    1.4248    0.0099 C.3       1 <0>         0.0213
      2 O1          0.0021   -0.0041    0.0020 O.3       1 <0>        -0.2991
      3 C2          0.6263   -0.6188    1.0422 C.ar      1 <0>         0.1491
      4 C3          1.2006    0.1375    2.0485 C.ar      1 <0>        -0.2117
      5 C4          1.8402   -0.4934    3.1152 C.ar      1 <0>         0.0208
      6 C5          1.8996   -1.8859    3.1657 C.ar      1 <0>        -0.1864
      7 C6          1.3241   -2.6390    2.1577 C.ar      1 <0>         0.1467
      8 C7          0.6819   -2.0080    1.0969 C.ar      1 <0>         0.0457
      9 O2          0.1122   -2.7499    0.1096 O.3       1 <0>        -0.3119
     10 C8          0.9372   -3.0854   -1.0080 C.3       1 <0>         0.0353
     11 O3          1.3822   -3.9968    2.2062 O.3       1 <0>        -0.2998
     12 C9          2.0526   -4.5779    3.3264 C.3       1 <0>         0.0262
     13 C10         2.4563    0.3147    4.1934 C.ar      1 <0>         0.1431
     14 C11         2.2984    1.7131    4.1964 C.ar      1 <0>         0.0936
     15 N1          2.8372    2.4428    5.1434 N.ar      1 <0>        -0.4176
     16 C12         3.5440    1.8552    6.1178 C.ar      1 <0>         0.0779
     17 C13         4.1298    2.6171    7.1429 C.ar      1 <0>        -0.0809
     18 C14         4.8454    2.0050    8.1272 C.ar      1 <0>        -0.0933
     19 C15         5.0129    0.6247    8.1418 C.ar      1 <0>        -0.0863
     20 C16         4.4537   -0.1640    7.1525 C.ar      1 <0>        -0.0128
     21 C17         3.7043    0.4474    6.1175 C.ar      1 <0>         0.0986
     22 N2          3.1467   -0.2832    5.1503 N.ar      1 <0>        -0.4067
     23 C18         4.6371   -1.6337    7.1748 C.ar      1 <0>        -0.0408
     24 C19         3.5364   -2.4788    7.0353 C.ar      1 <0>        -0.0752
     25 C20         3.7137   -3.8471    7.0565 C.ar      1 <0>        -0.1084
     26 C21         4.9801   -4.3809    7.2157 C.ar      1 <0>        -0.0643
     27 C22         6.0757   -3.5477    7.3550 C.ar      1 <0>        -0.1042
     28 C23         5.9119   -2.1779    7.3297 C.ar      1 <0>        -0.0986
     29 C24         5.1667   -5.8761    7.2380 C.3       1 <0>        -0.1063
     30 C25         5.4067   -6.3733    5.8357 C.2       1 <0>         0.5201
     31 O4          5.4243   -5.5906    4.9095 O.2       1 <0>        -0.5103
     32 N3          5.6016   -7.6878    5.6109 N.am      1 <0>        -0.6315
     33 C26         5.5728   -8.6267    6.7336 C.3       1 <0>         0.1133
     34 C27         4.3844   -9.5804    6.5722 C.3       1 <0>        -0.6291
     35 S1          4.5381  -10.4451    4.9813 S.o2      1 <0>         2.4165
     36 O5          3.3222  -11.1333    4.7220 O.2       1 <0>        -0.9336
     37 O6          5.7594  -11.1714    4.9781 O.2       1 <0>        -0.9290
     38 C28         4.6812   -9.0639    3.8091 C.3       1 <0>        -0.6221
     39 C29         5.8340   -8.1626    4.2459 C.3       1 <0>         0.1175
     40 H1          1.0053    1.8021    0.0021 H         1 <0>         0.0585
     41 H2         -0.5445    1.7859   -0.8732 H         1 <0>         0.1056
     42 H3         -0.5275    1.7763    0.9067 H         1 <0>         0.0598
     43 H4          1.1540    1.2157    2.0076 H         1 <0>         0.1412
     44 H5          2.3948   -2.3760    3.9908 H         1 <0>         0.1496
     45 H6          1.2837   -2.1717   -1.4910 H         1 <0>         0.0456
     46 H7          1.7955   -3.6633   -0.6655 H         1 <0>         0.0454
     47 H8          0.3616   -3.6769   -1.7199 H         1 <0>         0.0943
     48 H9          2.0267   -5.6643    3.2419 H         1 <0>         0.0994
     49 H10         3.0886   -4.2396    3.3453 H         1 <0>         0.0649
     50 H11         1.5540   -4.2730    4.2465 H         1 <0>         0.0562
     51 H12         1.7290    2.1894    3.4119 H         1 <0>         0.1752
     52 H13         4.0126    3.6907    7.1502 H         1 <0>         0.1426
     53 H14         5.2906    2.6020    8.9094 H         1 <0>         0.1412
     54 H15         5.5856    0.1639    8.9331 H         1 <0>         0.1402
     55 H16         2.5473   -2.0632    6.9114 H         1 <0>         0.1213
     56 H17         2.8622   -4.5026    6.9490 H         1 <0>         0.1205
     57 H18         7.0617   -3.9704    7.4797 H         1 <0>         0.1230
     58 H19         6.7685   -1.5285    7.4341 H         1 <0>         0.1247
     59 H20         6.0235   -6.1261    7.8637 H         1 <0>         0.1092
     60 H21         4.2714   -6.3481    7.6426 H         1 <0>         0.1074
     61 H22         6.4993   -9.2006    6.7511 H         1 <0>         0.1016
     62 H23         5.4705   -8.0736    7.6672 H         1 <0>         0.1129
     63 H24         4.3864  -10.3071    7.3846 H         1 <0>         0.1516
     64 H25         3.4547   -9.0118    6.5905 H         1 <0>         0.1387
     65 H26         4.8778   -9.4520    2.8096 H         1 <0>         0.1503
     66 H27         3.7539   -8.4910    3.8046 H         1 <0>         0.1372
     67 H28         5.9006   -7.3093    3.5709 H         1 <0>         0.1194
     68 H29         6.7660   -8.7267    4.2112 H         1 <0>         0.0967
@<TRIPOS>BOND
     1    1    2 1
     2    1   40 1
     3    1   41 1
     4    1   42 1
     5    2    3 1
     6    3    8 ar
     7    3    4 ar
     8    4    5 ar
     9    4   43 1
    10    5    6 ar
    11    5   13 1
    12    6    7 ar
    13    6   44 1
    14    7    8 ar
    15    7   11 1
    16    8    9 1
    17    9   10 1
    18   10   45 1
    19   10   46 1
    20   10   47 1
    21   11   12 1
    22   12   48 1
    23   12   49 1
    24   12   50 1
    25   13   22 ar
    26   13   14 ar
    27   14   15 ar
    28   14   51 1
    29   15   16 ar
    30   16   21 ar
    31   16   17 ar
    32   17   18 ar
    33   17   52 1
    34   18   19 ar
    35   18   53 1
    36   19   20 ar
    37   19   54 1
    38   20   21 ar
    39   20   23 1
    40   21   22 ar
    41   23   28 ar
    42   23   24 ar
    43   24   25 ar
    44   24   55 1
    45   25   26 ar
    46   25   56 1
    47   26   27 ar
    48   26   29 1
    49   27   28 ar
    50   27   57 1
    51   28   58 1
    52   29   30 1
    53   29   59 1
    54   29   60 1
    55   30   31 2
    56   30   32 am
    57   32   39 1
    58   32   33 1
    59   33   34 1
    60   33   61 1
    61   33   62 1
    62   34   35 1
    63   34   63 1
    64   34   64 1
    65   35   36 2
    66   35   37 2
    67   35   38 1
    68   38   39 1
    69   38   65 1
    70   38   66 1
    71   39   67 1
    72   39   68 1
@<TRIPOS>MOLECULE
CHEMBL233969
   74    79     0     0     0
SMALL
USER_CHARGES

@<TRIPOS>ATOM
      1 C1         -0.1554    1.3288    0.6414 C.3       1 <0>        -0.1626
      2 C2         -0.1822   -0.2005    0.6047 C.3       1 <0>         0.1880
      3 H1          0.4247   -0.5547   -0.2285 H         1 <0>         0.1012
      4 C3          0.3721   -0.7437    1.8965 C.ar      1 <0>        -0.1064
      5 C4         -0.4267   -0.7965    3.0234 C.ar      1 <0>        -0.1163
      6 C5          0.0818   -1.2948    4.2084 C.ar      1 <0>        -0.1116
      7 C6          1.3889   -1.7407    4.2662 C.ar      1 <0>        -0.1099
      8 C7          2.1875   -1.6888    3.1390 C.ar      1 <0>        -0.1114
      9 C8          1.6777   -1.1945    1.9530 C.ar      1 <0>        -0.1035
     10 N1         -1.5625   -0.6608    0.4338 N.pl3     1 <0>        -0.6712
     11 C9         -2.1075   -0.7528   -0.8306 C.ar      1 <0>         0.5438
     12 C10        -3.4364   -1.1883   -1.0137 C.ar      1 <0>        -0.2475
     13 C11        -4.4669   -1.6001   -0.1446 C.2       1 <0>        -0.0972
     14 C12        -5.5501   -1.9100   -0.9088 C.2       1 <0>         0.0337
     15 N2         -5.2340   -1.7056   -2.2423 N.pl3     1 <0>        -0.4089
     16 C13        -3.9440   -1.2636   -2.3274 C.ar      1 <0>         0.3649
     17 N3         -3.1509   -0.9215   -3.3403 N.ar      1 <0>        -0.5629
     18 C14        -1.9114   -0.5188   -3.1214 C.ar      1 <0>         0.5779
     19 N4         -1.3949   -0.4281   -1.9030 N.ar      1 <0>        -0.6025
     20 N5         -1.1191   -0.1714   -4.2110 N.pl3     1 <0>        -0.3518
     21 C15        -1.4916   -0.1948   -5.5227 C.cat     1 <0>         0.4263
     22 N6         -0.5025    0.1932   -6.2755 N.pl3     1 <0>        -0.4840
     23 C16         0.5690    0.4915   -5.5043 C.ar      1 <0>         0.0861
     24 C17         0.1909    0.2678   -4.1658 C.ar      1 <0>         0.0293
     25 C18         1.1115    0.5040   -3.1591 C.ar      1 <0>         0.1887
     26 N7          2.3226    0.9346   -3.4550 N.ar      1 <0>        -0.4381
     27 C19         2.7088    1.1571   -4.6996 C.ar      1 <0>         0.1349
     28 C20         1.8686    0.9441   -5.7564 C.ar      1 <0>        -0.1267
     29 C21        -6.1352   -1.9281   -3.3757 C.3       1 <0>         0.0662
     30 C22        -6.8432   -2.3839   -0.4023 C.2       1 <0>         0.5827
     31 O1         -7.7787   -2.5320   -1.1664 O.2       1 <0>        -0.5242
     32 N8         -6.9947   -2.6553    0.9091 N.am      1 <0>        -0.7099
     33 C23        -8.2489   -3.2341    1.3972 C.3       1 <0>         0.1207
     34 C24        -8.1598   -3.4419    2.9104 C.3       1 <0>        -0.1296
     35 C25        -9.4697   -4.0464    3.4202 C.3       1 <0>         0.0571
     36 N9         -9.3841   -4.2458    4.8731 N.3       1 <0>        -0.5371
     37 C26        -8.3817   -5.2683    5.2064 C.3       1 <0>         0.0136
     38 C27        -8.2829   -5.4013    6.7284 C.3       1 <0>         0.0621
     39 O2         -9.5733   -5.7149    7.2593 O.3       1 <0>        -0.3837
     40 C28       -10.5739   -4.7397    6.9541 C.3       1 <0>         0.0623
     41 C29       -10.6960   -4.6000    5.4344 C.3       1 <0>         0.0168
     42 H2          0.8715    1.6713    0.7686 H         1 <0>         0.0790
     43 H3         -0.5564    1.7217   -0.2930 H         1 <0>         0.0632
     44 H4         -0.7624    1.6829    1.4746 H         1 <0>         0.0656
     45 H5         -1.4479   -0.4481    2.9782 H         1 <0>         0.1184
     46 H6         -0.5421   -1.3353    5.0890 H         1 <0>         0.1275
     47 H7          1.7864   -2.1293    5.1922 H         1 <0>         0.1275
     48 H8          3.2088   -2.0369    3.1844 H         1 <0>         0.1284
     49 H9          2.3004   -1.1574    1.0714 H         1 <0>         0.1258
     50 H10        -2.0932   -0.9009    1.2093 H         1 <0>         0.4212
     51 H11        -4.4077   -1.6595    0.9321 H         1 <0>         0.1643
     52 H12        -2.4650   -0.4918   -5.8843 H         1 <0>         0.2791
     53 H13         0.8370    0.3355   -2.1282 H         1 <0>         0.1937
     54 H14         3.7125    1.5096   -4.8859 H         1 <0>         0.1913
     55 H15         2.1988    1.1316   -6.7674 H         1 <0>         0.1699
     56 H16        -6.6368   -0.9943   -3.6297 H         1 <0>         0.0857
     57 H17        -5.5606   -2.2770   -4.2337 H         1 <0>         0.0898
     58 H18        -6.8786   -2.6785   -3.1069 H         1 <0>         0.1142
     59 H19        -6.2734   -2.4673    1.5298 H         1 <0>         0.4047
     60 H20        -9.0734   -2.5578    1.1713 H         1 <0>         0.0785
     61 H21        -8.4211   -4.1930    0.9083 H         1 <0>         0.0747
     62 H22        -7.3354   -4.1181    3.1364 H         1 <0>         0.0724
     63 H23        -7.9877   -2.4830    3.3993 H         1 <0>         0.0827
     64 H24       -10.2941   -3.3701    3.1942 H         1 <0>         0.0825
     65 H25        -9.6418   -5.0052    2.9313 H         1 <0>         0.0412
     66 H26        -8.6800   -6.2243    4.7761 H         1 <0>         0.0447
     67 H27        -7.4130   -4.9733    4.8031 H         1 <0>         0.0869
     68 H28        -7.5826   -6.1980    6.9794 H         1 <0>         0.0989
     69 H29        -7.9329   -4.4608    7.1539 H         1 <0>         0.0603
     70 H30       -11.5306   -5.0579    7.3683 H         1 <0>         0.1012
     71 H31       -10.2906   -3.7799    7.3862 H         1 <0>         0.0613
     72 H32       -11.4165   -3.8172    5.1975 H         1 <0>         0.0890
     73 H33       -11.0312   -5.5453    5.0077 H         1 <0>         0.0458
     74 H34        -0.5295    0.2583   -7.2429 H         1 <0>         0.4714
@<TRIPOS>BOND
     1    1    2 1
     2    1   42 1
     3    1   43 1
     4    1   44 1
     5    2    3 1
     6    2    4 1
     7    2   10 1
     8    4    9 ar
     9    4    5 ar
    10    5    6 ar
    11    5   45 1
    12    6    7 ar
    13    6   46 1
    14    7    8 ar
    15    7   47 1
    16    8    9 ar
    17    8   48 1
    18    9   49 1
    19   10   11 1
    20   10   50 1
    21   11   19 ar
    22   11   12 ar
    23   12   16 ar
    24   12   13 1
    25   13   14 2
    26   13   51 1
    27   14   15 1
    28   14   30 1
    29   15   16 1
    30   15   29 1
    31   16   17 ar
    32   17   18 ar
    33   18   19 ar
    34   18   20 1
    35   20   24 1
    36   20   21 1
    37   21   22 2
    38   21   52 1
    39   22   23 1
    40   22   74 1
    41   23   28 ar
    42   23   24 ar
    43   24   25 ar
    44   25   26 ar
    45   25   53 1
    46   26   27 ar
    47   27   28 ar
    48   27   54 1
    49   28   55 1
    50   29   56 1
    51   29   57 1
    52   29   58 1
    53   30   31 2
    54   30   32 am
    55   32   33 1
    56   32   59 1
    57   33   34 1
    58   33   60 1
    59   33   61 1
    60   34   35 1
    61   34   62 1
    62   34   63 1
    63   35   36 1
    64   35   64 1
    65   35   65 1
    66   36   41 1
    67   36   37 1
    68   37   38 1
    69   37   66 1
    70   37   67 1
    71   38   39 1
    72   38   68 1
    73   38   69 1
    74   39   40 1
    75   40   41 1
    76   40   70 1
    77   40   71 1
    78   41   72 1
    79   41   73 1
@<TRIPOS>MOLECULE
CHEMBL233969__1
   75    80     0     0     0
SMALL
USER_CHARGES

@<TRIPOS>ATOM
      1 C1         -0.1554    1.3288    0.6414 C.3       1 <0>        -0.1630
      2 C2         -0.1822   -0.2005    0.6047 C.3       1 <0>         0.1869
      3 H1          0.4247   -0.5547   -0.2285 H         1 <0>         0.1028
      4 C3          0.3721   -0.7437    1.8965 C.ar      1 <0>        -0.1063
      5 C4         -0.4267   -0.7965    3.0234 C.ar      1 <0>        -0.1185
      6 C5          0.0818   -1.2948    4.2084 C.ar      1 <0>        -0.1137
      7 C6          1.3889   -1.7407    4.2662 C.ar      1 <0>        -0.1092
      8 C7          2.1875   -1.6888    3.1390 C.ar      1 <0>        -0.1088
      9 C8          1.6777   -1.1945    1.9530 C.ar      1 <0>        -0.1017
     10 N1         -1.5625   -0.6608    0.4338 N.pl3     1 <0>        -0.6697
     11 C9         -2.1075   -0.7528   -0.8306 C.ar      1 <0>         0.5451
     12 C10        -3.4364   -1.1883   -1.0137 C.ar      1 <0>        -0.2532
     13 C11        -4.4669   -1.6001   -0.1446 C.2       1 <0>        -0.0915
     14 C12        -5.5501   -1.9100   -0.9088 C.2       1 <0>         0.0212
     15 N2         -5.2340   -1.7056   -2.2423 N.pl3     1 <0>        -0.4096
     16 C13        -3.9440   -1.2636   -2.3274 C.ar      1 <0>         0.3730
     17 N3         -3.1509   -0.9215   -3.3403 N.ar      1 <0>        -0.5665
     18 C14        -1.9114   -0.5188   -3.1214 C.ar      1 <0>         0.5898
     19 N4         -1.3949   -0.4281   -1.9030 N.ar      1 <0>        -0.6009
     20 N5         -1.1191   -0.1714   -4.2110 N.pl3     1 <0>        -0.3567
     21 C15        -1.4916   -0.1948   -5.5227 C.cat     1 <0>         0.4282
     22 N6         -0.5025    0.1932   -6.2755 N.pl3     1 <0>        -0.4812
     23 C16         0.5690    0.4915   -5.5043 C.ar      1 <0>         0.0860
     24 C17         0.1909    0.2678   -4.1658 C.ar      1 <0>         0.0281
     25 C18         1.1115    0.5040   -3.1591 C.ar      1 <0>         0.1867
     26 N7          2.3226    0.9346   -3.4550 N.ar      1 <0>        -0.4362
     27 C19         2.7088    1.1571   -4.6996 C.ar      1 <0>         0.1368
     28 C20         1.8686    0.9441   -5.7564 C.ar      1 <0>        -0.1237
     29 C21        -6.1352   -1.9281   -3.3757 C.3       1 <0>         0.0653
     30 C22        -6.8432   -2.3839   -0.4023 C.2       1 <0>         0.5908
     31 O1         -7.7787   -2.5320   -1.1664 O.2       1 <0>        -0.5151
     32 N8         -6.9947   -2.6553    0.9091 N.am      1 <0>        -0.7202
     33 C23        -8.2489   -3.2341    1.3972 C.3       1 <0>         0.1255
     34 C24        -8.1598   -3.4419    2.9104 C.3       1 <0>        -0.1646
     35 C25        -9.4697   -4.0464    3.4202 C.3       1 <0>        -0.0060
     36 N9         -9.3841   -4.2458    4.8731 N.4       1 <0>        -0.3852
     37 C26        -8.3526   -5.2493    5.1700 C.3       1 <0>        -0.0490
     38 C27        -8.2653   -5.4552    6.6843 C.3       1 <0>         0.0357
     39 O2         -9.5457   -5.8554    7.1803 O.3       1 <0>        -0.3545
     40 C28       -10.5897   -4.9204    6.8945 C.3       1 <0>         0.0351
     41 C29       -10.6814   -4.7135    5.3806 C.3       1 <0>        -0.0437
     42 H2          0.8715    1.6713    0.7686 H         1 <0>         0.0810
     43 H3         -0.5564    1.7217   -0.2930 H         1 <0>         0.0639
     44 H4         -0.7624    1.6829    1.4746 H         1 <0>         0.0649
     45 H5         -1.4479   -0.4481    2.9782 H         1 <0>         0.1159
     46 H6         -0.5421   -1.3353    5.0890 H         1 <0>         0.1255
     47 H7          1.7864   -2.1293    5.1922 H         1 <0>         0.1283
     48 H8          3.2088   -2.0369    3.1844 H         1 <0>         0.1304
     49 H9          2.3004   -1.1574    1.0714 H         1 <0>         0.1275
     50 H10        -2.0932   -0.9009    1.2093 H         1 <0>         0.4192
     51 H11        -4.4077   -1.6595    0.9321 H         1 <0>         0.1615
     52 H12        -2.4650   -0.4918   -5.8843 H         1 <0>         0.2794
     53 H13         0.8370    0.3355   -2.1282 H         1 <0>         0.1925
     54 H14         3.7125    1.5096   -4.8859 H         1 <0>         0.1930
     55 H15         2.1988    1.1316   -6.7674 H         1 <0>         0.1718
     56 H16        -6.6368   -0.9943   -3.6297 H         1 <0>         0.0870
     57 H17        -5.5606   -2.2770   -4.2337 H         1 <0>         0.0926
     58 H18        -6.8786   -2.6785   -3.1069 H         1 <0>         0.1123
     59 H19        -6.2734   -2.4673    1.5298 H         1 <0>         0.4064
     60 H20        -9.0734   -2.5578    1.1713 H         1 <0>         0.0870
     61 H21        -8.4211   -4.1930    0.9083 H         1 <0>         0.0853
     62 H22        -7.3354   -4.1181    3.1364 H         1 <0>         0.0967
     63 H23        -7.9877   -2.4830    3.3993 H         1 <0>         0.0979
     64 H24       -10.2941   -3.3701    3.1942 H         1 <0>         0.1395
     65 H25        -9.6418   -5.0052    2.9313 H         1 <0>         0.1370
     66 H26        -8.6135   -6.1921    4.6893 H         1 <0>         0.1409
     67 H27        -7.3898   -4.9033    4.7940 H         1 <0>         0.1413
     68 H28        -7.5311   -6.2301    6.9045 H         1 <0>         0.1425
     69 H29        -7.9653   -4.5224    7.1617 H         1 <0>         0.0814
     70 H30       -11.5378   -5.3083    7.2669 H         1 <0>         0.1445
     71 H31       -10.3693   -3.9693    7.3792 H         1 <0>         0.0824
     72 H32       -11.4473   -3.9698    5.1610 H         1 <0>         0.1450
     73 H33       -10.9414   -5.6566    4.8998 H         1 <0>         0.1411
     74 H34        -0.5295    0.2583   -7.2429 H         1 <0>         0.4726
     75 H35        -9.1432   -3.3733    5.3189 H         1 <0>         0.4236
@<TRIPOS>BOND
     1    1    2 1
     2    1   42 1
     3    1   43 1
     4    1   44 1
     5    2    3 1
     6    2    4 1
     7    2   10 1
     8    4    9 ar
     9    4    5 ar
    10    5    6 ar
    11    5   45 1
    12    6    7 ar
    13    6   46 1
    14    7    8 ar
    15    7   47 1
    16    8    9 ar
    17    8   48 1
    18    9   49 1
    19   10   11 1
    20   10   50 1
    21   11   19 ar
    22   11   12 ar
    23   12   16 ar
    24   12   13 1
    25   13   14 2
    26   13   51 1
    27   14   15 1
    28   14   30 1
    29   15   16 1
    30   15   29 1
    31   16   17 ar
    32   17   18 ar
    33   18   19 ar
    34   18   20 1
    35   20   24 1
    36   20   21 1
    37   21   22 2
    38   21   52 1
    39   22   23 1
    40   22   74 1
    41   23   28 ar
    42   23   24 ar
    43   24   25 ar
    44   25   26 ar
    45   25   53 1
    46   26   27 ar
    47   27   28 ar
    48   27   54 1
    49   28   55 1
    50   29   56 1
    51   29   57 1
    52   29   58 1
    53   30   31 2
    54   30   32 am
    55   32   33 1
    56   32   59 1
    57   33   34 1
    58   33   60 1
    59   33   61 1
    60   34   35 1
    61   34   62 1
    62   34   63 1
    63   35   36 1
    64   35   64 1
    65   35   65 1
    66   36   41 1
    67   36   37 1
    68   36   75 1
    69   37   38 1
    70   37   66 1
    71   37   67 1
    72   38   39 1
    73   38   68 1
    74   38   69 1
    75   39   40 1
    76   40   41 1
    77   40   70 1
    78   40   71 1
    79   41   72 1
    80   41   73 1
@<TRIPOS>MOLECULE
CHEMBL1087268
   57    60     0     0     0
SMALL
USER_CHARGES

@<TRIPOS>ATOM
      1 C1          6.4843   -3.8182    0.0165 C.3       1 <0>        -0.0754
      2 C2          5.0034   -4.0974    0.0112 C.2       1 <0>        -0.1661
      3 C3          4.3477   -5.2831   -0.0107 C.2       1 <0>         0.0390
      4 N1          3.0276   -5.2393   -0.0101 N.2       1 <0>        -0.4881
      5 C4          2.3858   -4.0907    0.0108 C.2       1 <0>         0.1981
      6 S1          3.6297   -2.9574    0.0397 S.3       1 <0>         0.1648
      7 N2          1.0159   -3.8681    0.0143 N.pl3     1 <0>        -0.5528
      8 C5          0.1389   -4.9363   -0.1114 C.ar      1 <0>         0.5395
      9 C6         -1.2312   -4.7154   -0.2152 C.ar      1 <0>        -0.3364
     10 C7         -2.0723   -5.8172   -0.3401 C.ar      1 <0>         0.5055
     11 N3         -1.5424   -7.0382   -0.3560 N.ar      1 <0>        -0.6051
     12 C8         -0.2332   -7.2107   -0.2549 C.ar      1 <0>         0.6741
     13 N4          0.5976   -6.1856   -0.1399 N.ar      1 <0>        -0.5228
     14 N5          0.2807   -8.4955   -0.2749 N.pl3     1 <0>        -0.6486
     15 C9         -0.6206   -9.6429   -0.4065 C.3       1 <0>         0.1914
     16 H1         -1.5531   -9.4345    0.1179 H         1 <0>         0.0950
     17 C10        -0.9132   -9.8944   -1.8871 C.3       1 <0>        -0.1779
     18 C11         0.0299  -10.8638    0.1914 C.ar      1 <0>         0.0799
     19 C12        -0.7591  -11.9016    0.6511 C.ar      1 <0>        -0.1242
     20 C13        -0.1522  -13.0204    1.1994 C.ar      1 <0>        -0.0988
     21 C14         1.2346  -13.0540    1.2653 C.ar      1 <0>         0.0763
     22 C15         1.9580  -11.9763    0.7845 C.ar      1 <0>         0.0913
     23 N6          1.3446  -10.9311    0.2646 N.ar      1 <0>        -0.4516
     24 F1          1.8691  -14.1241    1.7922 F         1 <0>        -0.1127
     25 N7         -3.4438   -5.6453   -0.4460 N.pl3     1 <0>        -0.6174
     26 C16        -4.3534   -6.8015   -0.4422 C.3       1 <0>         0.0791
     27 C17        -5.4563   -6.5484    0.5909 C.3       1 <0>        -0.0212
     28 N8         -6.1089   -5.2646    0.3042 N.4       1 <0>        -0.3867
     29 C18        -5.1490   -4.1666    0.4741 C.3       1 <0>        -0.0252
     30 C19        -4.0312   -4.3014   -0.5591 C.3       1 <0>         0.0942
     31 C20        -7.2365   -5.0739    1.2262 C.3       1 <0>        -0.0497
     32 H2          6.6509   -2.7413    0.0418 H         1 <0>         0.0814
     33 H3          6.9373   -4.2766    0.8956 H         1 <0>         0.0933
     34 H4          6.9358   -4.2347   -0.8839 H         1 <0>         0.0935
     35 H5          4.8808   -6.2221   -0.0282 H         1 <0>         0.1841
     36 H6          0.6714   -2.9658    0.1046 H         1 <0>         0.4515
     37 H7         -1.6323   -3.7127   -0.1989 H         1 <0>         0.1823
     38 H8          1.2376   -8.6363   -0.2017 H         1 <0>         0.4579
     39 H9          0.0194  -10.1028   -2.4115 H         1 <0>         0.0898
     40 H10        -1.5837  -10.7481   -1.9850 H         1 <0>         0.0958
     41 H11        -1.3836   -9.0113   -2.3195 H         1 <0>         0.0635
     42 H12        -1.8353  -11.8411    0.5841 H         1 <0>         0.1492
     43 H13        -0.7435  -13.8461    1.5668 H         1 <0>         0.1610
     44 H14         3.0369  -11.9935    0.8316 H         1 <0>         0.1818
     45 H15        -4.7976   -6.9212   -1.4304 H         1 <0>         0.1224
     46 H16        -3.8004   -7.7018   -0.1745 H         1 <0>         0.1161
     47 H17        -6.1931   -7.3500    0.5398 H         1 <0>         0.1581
     48 H18        -5.0195   -6.5191    1.5891 H         1 <0>         0.1402
     49 H19        -5.6592   -3.2132    0.3370 H         1 <0>         0.1598
     50 H20        -4.7214   -4.2094    1.4759 H         1 <0>         0.1408
     51 H21        -3.2653   -3.5496   -0.3686 H         1 <0>         0.1431
     52 H22        -4.4423   -4.1644   -1.5592 H         1 <0>         0.1184
     53 H23        -6.8705   -5.0749    2.2529 H         1 <0>         0.1261
     54 H24        -7.7219   -4.1212    1.0144 H         1 <0>         0.1335
     55 H25        -7.9539   -5.8841    1.0954 H         1 <0>         0.1318
     56 H26        -2.1222   -7.8111   -0.4424 H         1 <0>         0.4267
     57 H27        -6.4507   -5.2670   -0.6452 H         1 <0>         0.4306
@<TRIPOS>BOND
     1    1    2 1
     2    1   32 1
     3    1   33 1
     4    1   34 1
     5    2    6 1
     6    2    3 2
     7    3    4 1
     8    3   35 1
     9    4    5 2
    10    5    6 1
    11    5    7 1
    12    7    8 1
    13    7   36 1
    14    8   13 ar
    15    8    9 ar
    16    9   10 ar
    17    9   37 1
    18   10   11 ar
    19   10   25 1
    20   11   12 ar
    21   11   56 1
    22   12   13 ar
    23   12   14 1
    24   14   15 1
    25   14   38 1
    26   15   16 1
    27   15   17 1
    28   15   18 1
    29   17   39 1
    30   17   40 1
    31   17   41 1
    32   18   23 ar
    33   18   19 ar
    34   19   20 ar
    35   19   42 1
    36   20   21 ar
    37   20   43 1
    38   21   22 ar
    39   21   24 1
    40   22   23 ar
    41   22   44 1
    42   25   30 1
    43   25   26 1
    44   26   27 1
    45   26   45 1
    46   26   46 1
    47   27   28 1
    48   27   47 1
    49   27   48 1
    50   28   29 1
    51   28   31 1
    52   28   57 1
    53   29   30 1
    54   29   49 1
    55   29   50 1
    56   30   51 1
    57   30   52 1
    58   31   53 1
    59   31   54 1
    60   31   55 1
@<TRIPOS>MOLECULE
CHEMBL1087268__1
   56    59     0     0     0
SMALL
USER_CHARGES

@<TRIPOS>ATOM
      1 C1          6.4888   -3.8253   -0.0662 C.3       1 <0>        -0.0635
      2 C2          5.0075   -4.1021   -0.0579 C.2       1 <0>        -0.2044
      3 C3          4.3498   -5.2868   -0.0490 C.2       1 <0>         0.0517
      4 N1          3.0298   -5.2408   -0.0431 N.2       1 <0>        -0.5038
      5 C4          2.3899   -4.0910   -0.0457 C.2       1 <0>         0.2681
      6 S1          3.6357   -2.9593   -0.0492 S.3       1 <0>         0.1012
      7 N2          1.0204   -3.8660   -0.0407 N.pl3     1 <0>        -0.5943
      8 C5          0.1412   -4.9353   -0.1387 C.ar      1 <0>         0.4923
      9 C6         -1.2289   -4.7143   -0.2437 C.ar      1 <0>        -0.3890
     10 C7         -2.0723   -5.8172   -0.3401 C.ar      1 <0>         0.4944
     11 N3         -1.5446   -7.0392   -0.3288 N.ar      1 <0>        -0.6403
     12 C8         -0.2354   -7.2117   -0.2275 C.ar      1 <0>         0.6370
     13 N4          0.5975   -6.1857   -0.1391 N.ar      1 <0>        -0.5783
     14 N5          0.2761   -8.4976   -0.2187 N.pl3     1 <0>        -0.6756
     15 C9          1.7213   -8.7102   -0.1074 C.3       1 <0>         0.2170
     16 H1          2.2473   -7.9155   -0.6364 H         1 <0>         0.1216
     17 C10         2.1268   -8.6961    1.3678 C.3       1 <0>        -0.1511
     18 C11         2.0814  -10.0416   -0.7146 C.ar      1 <0>         0.1053
     19 C12         3.3616  -10.2501   -1.1925 C.ar      1 <0>        -0.1280
     20 C13         3.6837  -11.4777   -1.7493 C.ar      1 <0>        -0.1017
     21 C14         2.6999  -12.4563   -1.8050 C.ar      1 <0>         0.0512
     22 C15         1.4400  -12.1738   -1.3060 C.ar      1 <0>         0.0815
     23 N6          1.1729  -10.9950   -0.7786 N.ar      1 <0>        -0.4577
     24 F1          2.9687  -13.6676   -2.3395 F         1 <0>        -0.1251
     25 N7         -3.4438   -5.6453   -0.4460 N.pl3     1 <0>        -0.6188
     26 C16        -4.3605   -6.7903   -0.3330 C.3       1 <0>         0.1048
     27 C17        -5.4503   -6.4413    0.6860 C.3       1 <0>        -0.0224
     28 N8         -6.0981   -5.1824    0.2965 N.4       1 <0>        -0.3851
     29 C18        -5.1295   -4.0807    0.3610 C.3       1 <0>        -0.0219
     30 C19        -4.0241   -4.3120   -0.6684 C.3       1 <0>         0.1015
     31 C20        -7.2142   -4.9049    1.2105 C.3       1 <0>        -0.0468
     32 H2          6.6572   -2.7484   -0.0668 H         1 <0>         0.0735
     33 H3          6.9454   -4.2639    0.8211 H         1 <0>         0.0831
     34 H4          6.9353   -4.2634   -0.9589 H         1 <0>         0.0831
     35 H5          4.8813   -6.2269   -0.0472 H         1 <0>         0.1728
     36 H6          0.6777   -2.9614    0.0312 H         1 <0>         0.4369
     37 H7         -1.6281   -3.7108   -0.2498 H         1 <0>         0.1370
     38 H8         -0.3222   -9.2580   -0.2862 H         1 <0>         0.4233
     39 H9          1.6008   -9.4908    1.8968 H         1 <0>         0.0557
     40 H10         3.2021   -8.8543    1.4506 H         1 <0>         0.0686
     41 H11         1.8664   -7.7330    1.8070 H         1 <0>         0.0718
     42 H12         4.1017   -9.4658   -1.1331 H         1 <0>         0.1495
     43 H13         4.6758  -11.6686   -2.1309 H         1 <0>         0.1533
     44 H14         0.6685  -12.9286   -1.3450 H         1 <0>         0.1711
     45 H15        -4.8164   -6.9916   -1.3024 H         1 <0>         0.0886
     46 H16        -3.8101   -7.6682    0.0056 H         1 <0>         0.1384
     47 H17        -6.1925   -7.2391    0.7120 H         1 <0>         0.1426
     48 H18        -5.0022   -6.3292    1.6733 H         1 <0>         0.1319
     49 H19        -5.6353   -3.1391    0.1476 H         1 <0>         0.1440
     50 H20        -4.6911   -4.0401    1.3582 H         1 <0>         0.1334
     51 H21        -3.2514   -3.5521   -0.5515 H         1 <0>         0.1306
     52 H22        -4.4454   -4.2587   -1.6723 H         1 <0>         0.0938
     53 H23        -6.8368   -4.8200    2.2295 H         1 <0>         0.1215
     54 H24        -7.6959   -3.9706    0.9224 H         1 <0>         0.1251
     55 H25        -7.9379   -5.7182    1.1576 H         1 <0>         0.1254
     56 H26        -6.4503   -5.2642   -0.6454 H         1 <0>         0.4253
@<TRIPOS>BOND
     1    1    2 1
     2    1   32 1
     3    1   33 1
     4    1   34 1
     5    2    6 1
     6    2    3 2
     7    3    4 1
     8    3   35 1
     9    4    5 2
    10    5    6 1
    11    5    7 1
    12    7    8 1
    13    7   36 1
    14    8   13 ar
    15    8    9 ar
    16    9   10 ar
    17    9   37 1
    18   10   11 ar
    19   10   25 1
    20   11   12 ar
    21   12   13 ar
    22   12   14 1
    23   14   15 1
    24   14   38 1
    25   15   16 1
    26   15   17 1
    27   15   18 1
    28   17   39 1
    29   17   40 1
    30   17   41 1
    31   18   23 ar
    32   18   19 ar
    33   19   20 ar
    34   19   42 1
    35   20   21 ar
    36   20   43 1
    37   21   22 ar
    38   21   24 1
    39   22   23 ar
    40   22   44 1
    41   25   30 1
    42   25   26 1
    43   26   27 1
    44   26   45 1
    45   26   46 1
    46   27   28 1
    47   27   47 1
    48   27   48 1
    49   28   29 1
    50   28   31 1
    51   28   56 1
    52   29   30 1
    53   29   49 1
    54   29   50 1
    55   30   51 1
    56   30   52 1
    57   31   53 1
    58   31   54 1
    59   31   55 1
@<TRIPOS>MOLECULE
CHEMBL1078720
   65    67     0     0     0
SMALL
USER_CHARGES

@<TRIPOS>ATOM
      1 C1          0.1099    1.6256    0.0523 C.3       1 <0>        -0.1878
      2 C2         -0.0441    0.1035    0.0275 C.3       1 <0>        -0.0179
      3 N1          0.4957   -0.4228   -1.2332 N.4       1 <0>        -0.3848
      4 C3          1.9459   -0.1929   -1.2788 C.3       1 <0>        -0.0148
      5 C4          2.4855   -0.6092   -2.6486 C.3       1 <0>        -0.1891
      6 C5          0.2255   -1.8642   -1.3177 C.3       1 <0>        -0.0105
      7 C6         -1.2848   -2.0963   -1.3960 C.3       1 <0>        -0.1502
      8 C7         -1.5662   -3.5976   -1.4840 C.3       1 <0>         0.0637
      9 O1         -2.9768   -3.8144   -1.5570 O.3       1 <0>        -0.3141
     10 C8         -3.3997   -5.1041   -1.6406 C.ar      1 <0>         0.1007
     11 C9         -2.4749   -6.1379   -1.6462 C.ar      1 <0>        -0.1839
     12 C10        -2.9035   -7.4479   -1.7315 C.ar      1 <0>        -0.0754
     13 C11        -4.2608   -7.7301   -1.8113 C.ar      1 <0>         0.1423
     14 C12        -5.1860   -6.6946   -1.8052 C.ar      1 <0>        -0.1075
     15 C13        -4.7560   -5.3854   -1.7145 C.ar      1 <0>        -0.1215
     16 N2         -4.6963   -9.0582   -1.8983 N.pl3     1 <0>        -0.6376
     17 C14        -3.9897  -10.0621   -1.2570 C.ar      1 <0>         0.5637
     18 N3         -2.9722   -9.7357   -0.4725 N.ar      1 <0>        -0.5598
     19 C15        -2.2725  -10.6653    0.1574 C.ar      1 <0>         0.1927
     20 C16        -2.6122  -11.9972   -0.0086 C.ar      1 <0>        -0.2658
     21 C17        -3.6891  -12.3105   -0.8415 C.ar      1 <0>         0.2591
     22 N4         -4.3511  -11.3222   -1.4390 N.ar      1 <0>        -0.5548
     23 C18        -4.0924  -13.7221   -1.0519 C.ar      1 <0>        -0.0374
     24 C19        -3.3982  -14.7482   -0.4113 C.ar      1 <0>        -0.0939
     25 C20        -3.7723  -16.0594   -0.6058 C.ar      1 <0>        -0.0597
     26 C21        -4.8471  -16.3613   -1.4447 C.ar      1 <0>        -0.1148
     27 C22        -5.5416  -15.3332   -2.0857 C.ar      1 <0>        -0.0919
     28 C23        -5.1694  -14.0223   -1.8858 C.ar      1 <0>        -0.0769
     29 C24        -5.2491  -17.7684   -1.6545 C.2       1 <0>         0.5657
     30 O2         -4.6441  -18.6630   -1.0967 O.2       1 <0>        -0.5198
     31 N5         -6.2865  -18.0593   -2.4642 N.am      1 <0>        -0.7272
     32 C25        -6.6849  -19.4536   -2.6721 C.3       1 <0>         0.2201
     33 C26        -7.8339  -19.5039   -3.5909 C.1       1 <0>         0.1875
     34 N6         -8.7206  -19.5427   -4.2999 N.1       1 <0>        -0.3954
     35 H1          1.1687    1.8832    0.0787 H         1 <0>         0.0808
     36 H2         -0.3455    2.0515   -0.8417 H         1 <0>         0.0801
     37 H3         -0.3837    2.0263    0.9377 H         1 <0>         0.1068
     38 H4          0.5011   -0.3306    0.8656 H         1 <0>         0.1305
     39 H5         -1.0997   -0.1562    0.1073 H         1 <0>         0.1329
     40 H6          2.1515    0.8646   -1.1133 H         1 <0>         0.1335
     41 H7          2.4319   -0.7834   -0.5021 H         1 <0>         0.1300
     42 H8          3.5400   -0.3427   -2.7200 H         1 <0>         0.1069
     43 H9          2.3740   -1.6866   -2.7709 H         1 <0>         0.0803
     44 H10         1.9270   -0.0950   -3.4307 H         1 <0>         0.0803
     45 H11         0.7024   -2.2716   -2.2092 H         1 <0>         0.1360
     46 H12         0.6241   -2.3611   -0.4332 H         1 <0>         0.1337
     47 H13        -1.7616   -1.6889   -0.5045 H         1 <0>         0.0987
     48 H14        -1.6834   -1.5995   -2.2805 H         1 <0>         0.0987
     49 H15        -1.0893   -4.0050   -2.3755 H         1 <0>         0.0714
     50 H16        -1.1676   -4.0945   -0.5995 H         1 <0>         0.0717
     51 H17        -1.4192   -5.9182   -1.5842 H         1 <0>         0.1269
     52 H18        -2.1833   -8.2526   -1.7366 H         1 <0>         0.1399
     53 H19        -6.2418   -6.9133   -1.8672 H         1 <0>         0.1364
     54 H20        -5.4756   -4.5802   -1.7053 H         1 <0>         0.1363
     55 H21        -5.4928   -9.2751   -2.4076 H         1 <0>         0.4257
     56 H22        -1.4452  -10.3881    0.7939 H         1 <0>         0.1743
     57 H23        -2.0573  -12.7758    0.4937 H         1 <0>         0.1526
     58 H24        -2.5667  -14.5145    0.2372 H         1 <0>         0.1398
     59 H25        -3.2344  -16.8538   -0.1099 H         1 <0>         0.1472
     60 H26        -6.3728  -15.5658   -2.7349 H         1 <0>         0.1322
     61 H27        -5.7090  -13.2268   -2.3782 H         1 <0>         0.1431
     62 H28        -6.7693  -17.3454   -2.9094 H         1 <0>         0.4073
     63 H29        -5.8515  -20.0094   -3.1019 H         1 <0>         0.1199
     64 H30        -6.9639  -19.8981   -1.7168 H         1 <0>         0.1199
     65 H31         0.0560    0.0479   -2.0099 H         1 <0>         0.4234
@<TRIPOS>BOND
     1    1    2 1
     2    1   35 1
     3    1   36 1
     4    1   37 1
     5    2    3 1
     6    2   38 1
     7    2   39 1
     8    3    4 1
     9    3    6 1
    10    3   65 1
    11    4    5 1
    12    4   40 1
    13    4   41 1
    14    5   42 1
    15    5   43 1
    16    5   44 1
    17    6    7 1
    18    6   45 1
    19    6   46 1
    20    7    8 1
    21    7   47 1
    22    7   48 1
    23    8    9 1
    24    8   49 1
    25    8   50 1
    26    9   10 1
    27   10   15 ar
    28   10   11 ar
    29   11   12 ar
    30   11   51 1
    31   12   13 ar
    32   12   52 1
    33   13   14 ar
    34   13   16 1
    35   14   15 ar
    36   14   53 1
    37   15   54 1
    38   16   17 1
    39   16   55 1
    40   17   22 ar
    41   17   18 ar
    42   18   19 ar
    43   19   20 ar
    44   19   56 1
    45   20   21 ar
    46   20   57 1
    47   21   22 ar
    48   21   23 1
    49   23   28 ar
    50   23   24 ar
    51   24   25 ar
    52   24   58 1
    53   25   26 ar
    54   25   59 1
    55   26   27 ar
    56   26   29 1
    57   27   28 ar
    58   27   60 1
    59   28   61 1
    60   29   30 2
    61   29   31 am
    62   31   32 1
    63   31   62 1
    64   32   33 1
    65   32   63 1
    66   32   64 1
    67   33   34 3
@<TRIPOS>MOLECULE
CHEMBL391492
   56    60     0     0     0
SMALL
USER_CHARGES

@<TRIPOS>ATOM
      1 C1          0.5617    1.3635   -0.1795 C.3       1 <0>        -0.1627
      2 C2          0.5839   -0.1658   -0.1368 C.3       1 <0>         0.1878
      3 H1         -0.4320   -0.5469   -0.2410 H         1 <0>         0.1017
      4 C3          1.4345   -0.6875   -1.2661 C.ar      1 <0>        -0.1064
      5 C4          2.8113   -0.7038   -1.1438 C.ar      1 <0>        -0.1167
      6 C5          3.5916   -1.1824   -2.1797 C.ar      1 <0>        -0.1119
      7 C6          2.9950   -1.6451   -3.3376 C.ar      1 <0>        -0.1099
      8 C7          1.6181   -1.6297   -3.4595 C.ar      1 <0>        -0.1112
      9 C8          0.8377   -1.1551   -2.4220 C.ar      1 <0>        -0.1033
     10 N1          1.1436   -0.6105    1.1419 N.pl3     1 <0>        -0.6709
     11 C9          0.3287   -0.7232    2.2499 C.ar      1 <0>         0.5451
     12 C10         0.8514   -1.1441    3.4903 C.ar      1 <0>        -0.2479
     13 C11         2.1318   -1.5218    3.9428 C.2       1 <0>        -0.0959
     14 C12         2.0256   -1.8337    5.2638 C.2       1 <0>         0.0420
     15 N2          0.7096   -1.6637    5.6624 N.pl3     1 <0>        -0.4061
     16 C13        -0.0253   -1.2418    4.5907 C.ar      1 <0>         0.3690
     17 N3         -1.3084   -0.9336    4.4158 N.ar      1 <0>        -0.5626
     18 C14        -1.7543   -0.5434    3.2345 C.ar      1 <0>         0.5806
     19 N4         -0.9648   -0.4327    2.1744 N.ar      1 <0>        -0.6023
     20 N5         -3.1034   -0.2316    3.0988 N.pl3     1 <0>        -0.3526
     21 C15        -4.0478   -0.2793    4.0815 C.cat     1 <0>         0.4273
     22 N6         -5.2062    0.0779    3.6061 N.pl3     1 <0>        -0.4838
     23 C16        -5.0879    0.3784    2.2918 C.ar      1 <0>         0.0861
     24 C17        -3.7357    0.1902    1.9441 C.ar      1 <0>         0.0293
     25 C18        -3.3364    0.4360    0.6415 C.ar      1 <0>         0.1886
     26 N7         -4.2132    0.8429   -0.2558 N.ar      1 <0>        -0.4381
     27 C19        -5.4883    1.0320    0.0374 C.ar      1 <0>         0.1350
     28 C20        -5.9720    0.8071    1.2958 C.ar      1 <0>        -0.1265
     29 C21         0.1907   -1.8990    7.0121 C.3       1 <0>         0.0638
     30 C22         3.1268   -2.2781    6.1259 C.2       1 <0>         0.5960
     31 O1          2.9422   -2.4299    7.3191 O.2       1 <0>        -0.5052
     32 N8          4.3427   -2.5180    5.5962 N.am      1 <0>        -0.5843
     33 O2          5.3756   -3.0489    6.4063 O.3       1 <0>        -0.1297
     34 C23         6.6097   -3.2526    5.7152 C.3       1 <0>        -0.0051
     35 H2          1.5775    1.7447   -0.0753 H         1 <0>         0.0655
     36 H3          0.1452    1.6944   -1.1310 H         1 <0>         0.0792
     37 H4         -0.0536    1.7409    0.6373 H         1 <0>         0.0635
     38 H5          3.2775   -0.3423   -0.2392 H         1 <0>         0.1183
     39 H6          4.6673   -1.1945   -2.0845 H         1 <0>         0.1273
     40 H7          3.6046   -2.0184   -4.1472 H         1 <0>         0.1275
     41 H8          1.1520   -1.9909   -4.3644 H         1 <0>         0.1286
     42 H9         -0.2382   -1.1465   -2.5157 H         1 <0>         0.1261
     43 H10         2.0870   -0.8257    1.2098 H         1 <0>         0.4212
     44 H11         3.0333   -1.5579    3.3493 H         1 <0>         0.1651
     45 H12        -3.8620   -0.5707    5.1047 H         1 <0>         0.2795
     46 H13        -2.3035    0.2945    0.3593 H         1 <0>         0.1936
     47 H14        -6.1640    1.3662   -0.7360 H         1 <0>         0.1913
     48 H15        -7.0163    0.9673    1.5199 H         1 <0>         0.1700
     49 H16         0.1996   -0.9643    7.5729 H         1 <0>         0.0877
     50 H17        -0.8306   -2.2747    6.9484 H         1 <0>         0.0920
     51 H18         0.8168   -2.6330    7.5193 H         1 <0>         0.1153
     52 H19         4.5101   -2.3271    4.6601 H         1 <0>         0.4103
     53 H20         6.4546   -3.9512    4.8929 H         1 <0>         0.0620
     54 H21         6.9668   -2.3012    5.3211 H         1 <0>         0.0623
     55 H22         7.3489   -3.6609    6.4043 H         1 <0>         0.1227
     56 H23        -6.0298    0.1216    4.1168 H         1 <0>         0.4715
@<TRIPOS>BOND
     1    1    2 1
     2    1   35 1
     3    1   36 1
     4    1   37 1
     5    2    3 1
     6    2    4 1
     7    2   10 1
     8    4    9 ar
     9    4    5 ar
    10    5    6 ar
    11    5   38 1
    12    6    7 ar
    13    6   39 1
    14    7    8 ar
    15    7   40 1
    16    8    9 ar
    17    8   41 1
    18    9   42 1
    19   10   11 1
    20   10   43 1
    21   11   19 ar
    22   11   12 ar
    23   12   16 ar
    24   12   13 1
    25   13   14 2
    26   13   44 1
    27   14   15 1
    28   14   30 1
    29   15   16 1
    30   15   29 1
    31   16   17 ar
    32   17   18 ar
    33   18   19 ar
    34   18   20 1
    35   20   24 1
    36   20   21 1
    37   21   22 2
    38   21   45 1
    39   22   23 1
    40   22   56 1
    41   23   28 ar
    42   23   24 ar
    43   24   25 ar
    44   25   26 ar
    45   25   46 1
    46   26   27 ar
    47   27   28 ar
    48   27   47 1
    49   28   48 1
    50   29   49 1
    51   29   50 1
    52   29   51 1
    53   30   31 2
    54   30   32 am
    55   32   33 1
    56   32   52 1
    57   33   34 1
    58   34   53 1
    59   34   54 1
    60   34   55 1
@<TRIPOS>MOLECULE
CHEMBL1078866
   60    63     0     0     0
SMALL
USER_CHARGES

@<TRIPOS>ATOM
      1 C1          0.6303    1.8388    0.6715 C.3       1 <0>        -0.0454
      2 N1          0.4843    0.3852    0.5180 N.4       1 <0>        -0.3878
      3 C2         -0.9420    0.0340    0.5174 C.3       1 <0>        -0.0024
      4 C3         -1.0951   -1.4780    0.3387 C.3       1 <0>         0.0251
      5 N2         -0.4029   -2.1706    1.4347 N.3       1 <0>        -0.5336
      6 C4          1.0215   -1.8094    1.4632 C.3       1 <0>         0.0202
      7 C5          1.1572   -0.2946    1.6327 C.3       1 <0>        -0.0027
      8 C6         -0.5750   -3.6257    1.3298 C.3       1 <0>         0.1027
      9 C7         -0.0691   -4.2834    2.5878 C.ar      1 <0>        -0.0784
     10 C8          1.2547   -4.6735    2.6790 C.ar      1 <0>        -0.1494
     11 C9          1.7229   -5.2772    3.8314 C.ar      1 <0>        -0.0946
     12 C10         0.8693   -5.4926    4.8958 C.ar      1 <0>        -0.1493
     13 C11        -0.4605   -5.1021    4.8075 C.ar      1 <0>         0.1893
     14 C12        -0.9263   -4.4907    3.6503 C.ar      1 <0>        -0.0910
     15 N3         -1.3271   -5.3186    5.8830 N.pl3     1 <0>        -0.6461
     16 C13        -2.6626   -5.6039    5.6499 C.ar      1 <0>         0.5554
     17 N4         -3.0768   -5.7820    4.4036 N.ar      1 <0>        -0.5857
     18 C14        -4.3445   -6.0566    4.1392 C.ar      1 <0>         0.1777
     19 C15        -5.2468   -6.1582    5.1826 C.ar      1 <0>        -0.2845
     20 C16        -4.7813   -5.9654    6.4867 C.ar      1 <0>         0.3065
     21 N5         -3.4910   -5.6970    6.6780 N.ar      1 <0>        -0.5702
     22 C17        -5.7081   -6.0636    7.6385 C.ar      1 <0>        -0.2023
     23 C18        -7.0557   -6.3561    7.4278 C.ar      1 <0>        -0.0364
     24 C19        -7.9157   -6.4474    8.5004 C.ar      1 <0>        -0.1925
     25 C20        -7.4411   -6.2477    9.7925 C.ar      1 <0>         0.3157
     26 C21        -6.0980   -5.9556   10.0049 C.ar      1 <0>        -0.2709
     27 C22        -5.2332   -5.8695    8.9358 C.ar      1 <0>        -0.0038
     28 N6         -8.3129   -6.3401   10.8760 N.2       1 <0>        -1.0869
     29 S1         -7.7493   -6.1027   12.4149 S.o2      1 <0>         2.5289
     30 O1         -6.8252   -7.1606   12.6299 O.2       1 <0>        -1.0245
     31 O2         -7.3186   -4.7487   12.4385 O.2       1 <0>        -1.0257
     32 C23        -9.2013   -6.3152   13.4812 C.3       1 <0>        -0.6370
     33 H1          1.6886    2.0998    0.6707 H         1 <0>         0.1228
     34 H2          0.1310    2.3435   -0.1556 H         1 <0>         0.1228
     35 H3          0.1797    2.1518    1.6134 H         1 <0>         0.1229
     36 H4         -1.3907    0.3353    1.4640 H         1 <0>         0.1378
     37 H5         -1.4427    0.5493   -0.3023 H         1 <0>         0.1346
     38 H6         -2.1529   -1.7406    0.3531 H         1 <0>         0.1242
     39 H7         -0.6586   -1.7777   -0.6141 H         1 <0>         0.0593
     40 H8          1.5079   -2.3138    2.2981 H         1 <0>         0.1293
     41 H9          1.4929   -2.1145    0.5290 H         1 <0>         0.0586
     42 H10         2.2128   -0.0230    1.6399 H         1 <0>         0.1340
     43 H11         0.6977    0.0083    2.5736 H         1 <0>         0.1375
     44 H12        -1.6318   -3.8581    1.1981 H         1 <0>         0.0973
     45 H13        -0.0118   -3.9974    0.4738 H         1 <0>         0.0539
     46 H14         1.9241   -4.5066    1.8480 H         1 <0>         0.1133
     47 H15         2.7571   -5.5810    3.8992 H         1 <0>         0.1248
     48 H16         1.2356   -5.9646    5.7955 H         1 <0>         0.1262
     49 H17        -1.9587   -4.1814    3.5803 H         1 <0>         0.1384
     50 H18        -0.9933   -5.2691    6.7925 H         1 <0>         0.4234
     51 H19        -4.6708   -6.1994    3.1196 H         1 <0>         0.1617
     52 H20        -6.2867   -6.3809    4.9942 H         1 <0>         0.1448
     53 H21        -7.4248   -6.5104    6.4247 H         1 <0>         0.1119
     54 H22        -8.9591   -6.6737    8.3378 H         1 <0>         0.1191
     55 H23        -5.7317   -5.8006   11.0090 H         1 <0>         0.1071
     56 H24        -4.1894   -5.6470    9.1015 H         1 <0>         0.1144
     57 H25        -9.6047   -7.3193   13.3500 H         1 <0>         0.1173
     58 H26        -8.9114   -6.1733   14.5224 H         1 <0>         0.1046
     59 H27        -9.9604   -5.5807   13.2121 H         1 <0>         0.1169
     60 H28         0.9019    0.0956   -0.3536 H         1 <0>         0.4209
@<TRIPOS>BOND
     1    1    2 1
     2    1   33 1
     3    1   34 1
     4    1   35 1
     5    2    7 1
     6    2    3 1
     7    2   60 1
     8    3    4 1
     9    3   36 1
    10    3   37 1
    11    4    5 1
    12    4   38 1
    13    4   39 1
    14    5    6 1
    15    5    8 1
    16    6    7 1
    17    6   40 1
    18    6   41 1
    19    7   42 1
    20    7   43 1
    21    8    9 1
    22    8   44 1
    23    8   45 1
    24    9   14 ar
    25    9   10 ar
    26   10   11 ar
    27   10   46 1
    28   11   12 ar
    29   11   47 1
    30   12   13 ar
    31   12   48 1
    32   13   14 ar
    33   13   15 1
    34   14   49 1
    35   15   16 1
    36   15   50 1
    37   16   21 ar
    38   16   17 ar
    39   17   18 ar
    40   18   19 ar
    41   18   51 1
    42   19   20 ar
    43   19   52 1
    44   20   21 ar
    45   20   22 1
    46   22   27 ar
    47   22   23 ar
    48   23   24 ar
    49   23   53 1
    50   24   25 ar
    51   24   54 1
    52   25   26 ar
    53   25   28 1
    54   26   27 ar
    55   26   55 1
    56   27   56 1
    57   28   29 1
    58   29   30 2
    59   29   31 2
    60   29   32 1
    61   32   57 1
    62   32   58 1
    63   32   59 1
@<TRIPOS>MOLECULE
CHEMBL1078866__1
   60    63     0     0     0
SMALL
USER_CHARGES

@<TRIPOS>ATOM
      1 C1          0.6231    1.8170    0.6695 C.3       1 <0>         0.0198
      2 N1          0.4755    0.3628    0.5224 N.3       1 <0>        -0.5433
      3 C2         -0.9422   -0.0178    0.4482 C.3       1 <0>         0.0242
      4 C3         -1.0509   -1.5294    0.2360 C.3       1 <0>        -0.0022
      5 N2         -0.3960   -2.2287    1.3493 N.4       1 <0>        -0.3855
      6 C4          1.0244   -1.8573    1.3954 C.3       1 <0>        -0.0062
      7 C5          1.1503   -0.3485    1.6173 C.3       1 <0>         0.0255
      8 C6         -0.5163   -3.6797    1.1544 C.3       1 <0>         0.0488
      9 C7          0.0461   -4.3963    2.3549 C.ar      1 <0>        -0.1407
     10 C8          1.3855   -4.7397    2.3895 C.ar      1 <0>        -0.1310
     11 C9          1.9055   -5.3971    3.4890 C.ar      1 <0>        -0.0882
     12 C10         1.0885   -5.7131    4.5569 C.ar      1 <0>        -0.1278
     13 C11        -0.2568   -5.3698    4.5254 C.ar      1 <0>         0.1977
     14 C12        -0.7750   -4.7042    3.4215 C.ar      1 <0>        -0.0959
     15 N3         -1.0867   -5.6882    5.6046 N.pl3     1 <0>        -0.6456
     16 C13        -2.4162   -6.0097    5.3848 C.ar      1 <0>         0.5510
     17 N4         -2.8555   -6.1237    4.1396 N.ar      1 <0>        -0.5931
     18 C14        -4.1185   -6.4300    3.8877 C.ar      1 <0>         0.1758
     19 C15        -4.9891   -6.6331    4.9432 C.ar      1 <0>        -0.2799
     20 C16        -4.4975   -6.5061    6.2458 C.ar      1 <0>         0.3097
     21 N5         -3.2136   -6.2005    6.4238 N.ar      1 <0>        -0.5674
     22 C17        -5.3899   -6.7137    7.4103 C.ar      1 <0>        -0.2071
     23 C18        -6.7307   -7.0443    7.2127 C.ar      1 <0>        -0.0352
     24 C19        -7.5585   -7.2373    8.2969 C.ar      1 <0>        -0.1916
     25 C20        -7.0585   -7.1024    9.5878 C.ar      1 <0>         0.3183
     26 C21        -5.7221   -6.7724    9.7871 C.ar      1 <0>        -0.2708
     27 C22        -4.8891   -6.5845    8.7059 C.ar      1 <0>        -0.0022
     28 N6         -7.8979   -7.2977   10.6832 N.2       1 <0>        -1.0848
     29 S1         -7.3038   -7.1373   12.2206 S.o2      1 <0>         2.5297
     30 O1         -6.3357   -8.1701   12.3447 O.2       1 <0>        -1.0237
     31 O2         -6.9236   -5.7719   12.3218 O.2       1 <0>        -1.0248
     32 C23        -8.7189   -7.4738   13.3046 C.3       1 <0>        -0.6367
     33 H1          1.6813    2.0780    0.6560 H         1 <0>         0.0828
     34 H2          0.1145    2.3189   -0.1536 H         1 <0>         0.0823
     35 H3          0.1830    2.1330    1.6153 H         1 <0>         0.0388
     36 H4         -1.4413    0.2557    1.3778 H         1 <0>         0.0602
     37 H5         -1.4150    0.5014   -0.3853 H         1 <0>         0.1225
     38 H6         -2.1018   -1.8159    0.1949 H         1 <0>         0.1359
     39 H7         -0.5635   -1.8008   -0.7005 H         1 <0>         0.1373
     40 H8          1.5120   -2.3869    2.2138 H         1 <0>         0.1384
     41 H9          1.5011   -2.1270    0.4530 H         1 <0>         0.1360
     42 H10         2.2041   -0.0705    1.6366 H         1 <0>         0.1216
     43 H11         0.6857   -0.0804    2.5661 H         1 <0>         0.0597
     44 H12        -1.5668   -3.9441    1.0326 H         1 <0>         0.1374
     45 H13         0.0379   -3.9738    0.2631 H         1 <0>         0.1356
     46 H14         2.0264   -4.4941    1.5557 H         1 <0>         0.1272
     47 H15         2.9517   -5.6642    3.5128 H         1 <0>         0.1354
     48 H16         1.4952   -6.2270    5.4154 H         1 <0>         0.1351
     49 H17        -1.8196   -4.4315    3.3959 H         1 <0>         0.1438
     50 H18        -0.7315   -5.6839    6.5073 H         1 <0>         0.4270
     51 H19        -4.4656   -6.5199    2.8690 H         1 <0>         0.1634
     52 H20        -6.0245   -6.8836    4.7652 H         1 <0>         0.1469
     53 H21        -7.1196   -7.1484    6.2105 H         1 <0>         0.1122
     54 H22        -8.5966   -7.4932    8.1444 H         1 <0>         0.1203
     55 H23        -5.3361   -6.6678   10.7903 H         1 <0>         0.1080
     56 H24        -3.8505   -6.3327    8.8612 H         1 <0>         0.1143
     57 H25        -9.0877   -8.4824   13.1180 H         1 <0>         0.1178
     58 H26        -8.4076   -7.3876   14.3456 H         1 <0>         0.1055
     59 H27        -9.5115   -6.7537   13.1015 H         1 <0>         0.1175
     60 H28        -0.8398   -1.9684    2.2173 H         1 <0>         0.4204
@<TRIPOS>BOND
     1    1    2 1
     2    1   33 1
     3    1   34 1
     4    1   35 1
     5    2    7 1
     6    2    3 1
     7    3    4 1
     8    3   36 1
     9    3   37 1
    10    4    5 1
    11    4   38 1
    12    4   39 1
    13    5    6 1
    14    5    8 1
    15    5   60 1
    16    6    7 1
    17    6   40 1
    18    6   41 1
    19    7   42 1
    20    7   43 1
    21    8    9 1
    22    8   44 1
    23    8   45 1
    24    9   14 ar
    25    9   10 ar
    26   10   11 ar
    27   10   46 1
    28   11   12 ar
    29   11   47 1
    30   12   13 ar
    31   12   48 1
    32   13   14 ar
    33   13   15 1
    34   14   49 1
    35   15   16 1
    36   15   50 1
    37   16   21 ar
    38   16   17 ar
    39   17   18 ar
    40   18   19 ar
    41   18   51 1
    42   19   20 ar
    43   19   52 1
    44   20   21 ar
    45   20   22 1
    46   22   27 ar
    47   22   23 ar
    48   23   24 ar
    49   23   53 1
    50   24   25 ar
    51   24   54 1
    52   25   26 ar
    53   25   28 1
    54   26   27 ar
    55   26   55 1
    56   27   56 1
    57   28   29 1
    58   29   30 2
    59   29   31 2
    60   29   32 1
    61   32   57 1
    62   32   58 1
    63   32   59 1
@<TRIPOS>MOLECULE
CHEMBL1078689
   55    58     0     0     0
SMALL
USER_CHARGES

@<TRIPOS>ATOM
      1 C1          1.3810    1.7327    0.6418 C.3       1 <0>        -0.6373
      2 S1          1.2160   -0.0713    0.5457 S.o2      1 <0>         2.5274
      3 O1          2.1794   -0.6961    1.3828 O.2       1 <0>        -1.0258
      4 O2         -0.1540   -0.4419    0.6161 O.2       1 <0>        -1.0259
      5 N1          1.6802   -0.4595   -0.9957 N.2       1 <0>        -1.0898
      6 C2          1.6720   -1.7898   -1.4118 C.ar      1 <0>         0.3118
      7 C3          1.2684   -2.7896   -0.5333 C.ar      1 <0>        -0.2707
      8 C4          1.2595   -4.1052   -0.9424 C.ar      1 <0>        -0.0054
      9 C5          1.6557   -4.4341   -2.2389 C.ar      1 <0>        -0.1950
     10 C6          2.0602   -3.4295   -3.1184 C.ar      1 <0>        -0.0378
     11 C7          2.0621   -2.1147   -2.7067 C.ar      1 <0>        -0.1934
     12 C8          1.6475   -5.8482   -2.6811 C.ar      1 <0>         0.3020
     13 C9          2.0482   -6.1894   -3.9767 C.ar      1 <0>        -0.2886
     14 C10         2.0237   -7.5222   -4.3442 C.ar      1 <0>         0.1806
     15 N2          1.6248   -8.4292   -3.4659 N.ar      1 <0>        -0.5810
     16 C11         1.2503   -8.0778   -2.2444 C.ar      1 <0>         0.5593
     17 N3          1.2636   -6.8144   -1.8493 N.ar      1 <0>        -0.5721
     18 N4          0.8398   -9.0584   -1.3560 N.pl3     1 <0>        -0.6478
     19 C12         0.9336  -10.4073   -1.7115 C.ar      1 <0>         0.1827
     20 C13         2.0357  -10.8647   -2.4224 C.ar      1 <0>        -0.1097
     21 C14         2.1253  -12.1978   -2.7720 C.ar      1 <0>        -0.0949
     22 C15         1.1192  -13.0768   -2.4154 C.ar      1 <0>        -0.1064
     23 C16         0.0206  -12.6247   -1.7076 C.ar      1 <0>        -0.0768
     24 C17        -0.0723  -11.2941   -1.3495 C.ar      1 <0>        -0.1512
     25 C18         1.2199  -14.5306   -2.7994 C.3       1 <0>         0.0997
     26 N5          1.9090  -15.2717   -1.7347 N.3       1 <0>        -0.5315
     27 C19         3.3124  -14.8487   -1.6216 C.3       1 <0>         0.0142
     28 C20         3.9749  -15.6009   -0.4644 C.3       1 <0>         0.0632
     29 O3          3.8498  -17.0085   -0.6837 O.3       1 <0>        -0.3874
     30 C21         2.4960  -17.4553   -0.7980 C.3       1 <0>         0.0637
     31 C22         1.8185  -16.7219   -1.9586 C.3       1 <0>         0.0169
     32 H1          2.4165    2.0136    0.4497 H         1 <0>         0.1161
     33 H2          0.7344    2.1968   -0.1029 H         1 <0>         0.1161
     34 H3          1.0911    2.0716    1.6364 H         1 <0>         0.1029
     35 H4          0.9620   -2.5346    0.4705 H         1 <0>         0.1060
     36 H5          0.9463   -4.8813   -0.2598 H         1 <0>         0.1151
     37 H6          2.3674   -3.6819   -4.1225 H         1 <0>         0.1122
     38 H7          2.3709   -1.3362   -3.3886 H         1 <0>         0.1176
     39 H8          2.3690   -5.4297   -4.6741 H         1 <0>         0.1431
     40 H9          2.3264   -7.8202   -5.3372 H         1 <0>         0.1616
     41 H10         0.4872   -8.8091   -0.4874 H         1 <0>         0.4215
     42 H11         2.8216  -10.1785   -2.7019 H         1 <0>         0.1285
     43 H12         2.9820  -12.5540   -3.3248 H         1 <0>         0.1172
     44 H13        -0.7635  -13.3139   -1.4306 H         1 <0>         0.1225
     45 H14        -0.9282  -10.9426   -0.7925 H         1 <0>         0.1234
     46 H15         0.2192  -14.9399   -2.9380 H         1 <0>         0.0828
     47 H16         1.7820  -14.6228   -3.7287 H         1 <0>         0.0426
     48 H17         3.8366  -15.0747   -2.5502 H         1 <0>         0.0417
     49 H18         3.3551  -13.7764   -1.4306 H         1 <0>         0.0935
     50 H19         5.0302  -15.3329   -0.4129 H         1 <0>         0.0977
     51 H20         3.4847  -15.3333    0.4717 H         1 <0>         0.0602
     52 H21         2.4817  -18.5286   -0.9878 H         1 <0>         0.0968
     53 H22         1.9628  -17.2417    0.1284 H         1 <0>         0.0597
     54 H23         0.7707  -17.0170   -2.0135 H         1 <0>         0.0861
     55 H24         2.3188  -16.9779   -2.8926 H         1 <0>         0.0423
@<TRIPOS>BOND
     1    1    2 1
     2    1   32 1
     3    1   33 1
     4    1   34 1
     5    2    3 2
     6    2    4 2
     7    2    5 1
     8    5    6 1
     9    6   11 ar
    10    6    7 ar
    11    7    8 ar
    12    7   35 1
    13    8    9 ar
    14    8   36 1
    15    9   10 ar
    16    9   12 1
    17   10   11 ar
    18   10   37 1
    19   11   38 1
    20   12   17 ar
    21   12   13 ar
    22   13   14 ar
    23   13   39 1
    24   14   15 ar
    25   14   40 1
    26   15   16 ar
    27   16   17 ar
    28   16   18 1
    29   18   19 1
    30   18   41 1
    31   19   24 ar
    32   19   20 ar
    33   20   21 ar
    34   20   42 1
    35   21   22 ar
    36   21   43 1
    37   22   23 ar
    38   22   25 1
    39   23   24 ar
    40   23   44 1
    41   24   45 1
    42   25   26 1
    43   25   46 1
    44   25   47 1
    45   26   31 1
    46   26   27 1
    47   27   28 1
    48   27   48 1
    49   27   49 1
    50   28   29 1
    51   28   50 1
    52   28   51 1
    53   29   30 1
    54   30   31 1
    55   30   52 1
    56   30   53 1
    57   31   54 1
    58   31   55 1
@<TRIPOS>MOLECULE
CHEMBL1078688
   59    62     0     0     0
SMALL
USER_CHARGES

@<TRIPOS>ATOM
      1 C1          0.9019    1.8776   -0.2927 C.3       1 <0>        -0.6368
      2 S1          0.9408    0.0653   -0.2266 S.o2      1 <0>         2.5294
      3 O1          2.2578   -0.3859    0.0584 O.2       1 <0>        -1.0250
      4 O2         -0.1683   -0.4214    0.5165 O.2       1 <0>        -1.0253
      5 N1          0.6542   -0.4236   -1.7826 N.2       1 <0>        -1.0854
      6 C2          0.6160   -1.7824   -2.0904 C.ar      1 <0>         0.3172
      7 C3          0.8131   -2.7271   -1.0887 C.ar      1 <0>        -0.2712
      8 C4          0.7757   -4.0708   -1.3906 C.ar      1 <0>        -0.0033
      9 C5          0.5400   -4.4837   -2.7021 C.ar      1 <0>        -0.2045
     10 C6          0.3426   -3.5345   -3.7052 C.ar      1 <0>        -0.0354
     11 C7          0.3752   -2.1919   -3.3976 C.ar      1 <0>        -0.1914
     12 C8          0.4998   -5.9282   -3.0293 C.ar      1 <0>         0.3074
     13 C9          0.2700   -6.3529   -4.3418 C.ar      1 <0>        -0.2780
     14 C10         0.2412   -7.7111   -4.5991 C.ar      1 <0>         0.1800
     15 N2          0.4306   -8.5633   -3.6035 N.ar      1 <0>        -0.5890
     16 C11         0.6464   -8.1332   -2.3689 C.ar      1 <0>         0.5497
     17 N3          0.6875   -6.8421   -2.0794 N.ar      1 <0>        -0.5685
     18 N4          0.8398   -9.0584   -1.3560 N.pl3     1 <0>        -0.6498
     19 C12         0.9216  -10.4206   -1.6599 C.ar      1 <0>         0.2000
     20 C13         1.5959  -10.8404   -2.7997 C.ar      1 <0>        -0.0801
     21 C14         1.6748  -12.1865   -3.0969 C.ar      1 <0>        -0.0922
     22 C15         1.0832  -13.1166   -2.2615 C.ar      1 <0>        -0.1254
     23 C16         0.4113  -12.7022   -1.1263 C.ar      1 <0>        -0.1418
     24 C17         0.3339  -11.3576   -0.8199 C.ar      1 <0>        -0.1347
     25 C18        -0.2318  -13.7192   -0.2189 C.3       1 <0>         0.0479
     26 N5          0.7334  -14.1421    0.8045 N.4       1 <0>        -0.3841
     27 C19         1.8540  -14.8376    0.1604 C.3       1 <0>        -0.0081
     28 C20         2.9013  -15.2090    1.2125 C.3       1 <0>        -0.1424
     29 C21         2.2625  -16.1266    2.2589 C.3       1 <0>         0.0966
     30 C22         1.0500  -15.4197    2.8714 C.3       1 <0>        -0.1834
     31 C23         0.0713  -15.0406    1.7578 C.3       1 <0>        -0.0027
     32 O3          3.2144  -16.4173    3.2843 O.3       1 <0>        -0.5536
     33 H1          1.6735    2.2330   -0.9756 H         1 <0>         0.1176
     34 H2         -0.0753    2.2074   -0.6454 H         1 <0>         0.1175
     35 H3          1.0840    2.2815    0.7032 H         1 <0>         0.1050
     36 H4          0.9959   -2.4069   -0.0736 H         1 <0>         0.1073
     37 H5          0.9292   -4.8040   -0.6125 H         1 <0>         0.1134
     38 H6          0.1600   -3.8519   -4.7212 H         1 <0>         0.1128
     39 H7          0.2180   -1.4567   -4.1730 H         1 <0>         0.1202
     40 H8          0.1182   -5.6367   -5.1358 H         1 <0>         0.1476
     41 H9          0.0658   -8.0731   -5.6014 H         1 <0>         0.1652
     42 H10         0.9184   -8.7611   -0.4361 H         1 <0>         0.4241
     43 H11         2.0575  -10.1146   -3.4528 H         1 <0>         0.1407
     44 H12         2.1988  -12.5135   -3.9828 H         1 <0>         0.1353
     45 H13         1.1458  -14.1688   -2.4966 H         1 <0>         0.1275
     46 H14        -0.1869  -11.0349    0.0695 H         1 <0>         0.1309
     47 H15        -1.1027  -13.2759    0.2640 H         1 <0>         0.1362
     48 H16        -0.5423  -14.5841   -0.8050 H         1 <0>         0.1356
     49 H17         1.4889  -15.7434   -0.3237 H         1 <0>         0.1297
     50 H18         2.3056  -14.1845   -0.5863 H         1 <0>         0.1415
     51 H19         3.7317  -15.7269    0.7325 H         1 <0>         0.1178
     52 H20         3.2673  -14.3038    1.6970 H         1 <0>         0.0957
     53 H21         1.9423  -17.0539    1.7838 H         1 <0>         0.0724
     54 H22         0.5570  -16.0882    3.5772 H         1 <0>         0.1131
     55 H23         1.3775  -14.5189    3.3903 H         1 <0>         0.0968
     56 H24        -0.7933  -14.5372    2.1904 H         1 <0>         0.1337
     57 H25        -0.2558  -15.9420    1.2397 H         1 <0>         0.1300
     58 H26         2.8767  -16.9953    3.9822 H         1 <0>         0.3922
     59 H27         1.0804  -13.3307    1.2939 H         1 <0>         0.4241
@<TRIPOS>BOND
     1    1    2 1
     2    1   33 1
     3    1   34 1
     4    1   35 1
     5    2    3 2
     6    2    4 2
     7    2    5 1
     8    5    6 1
     9    6   11 ar
    10    6    7 ar
    11    7    8 ar
    12    7   36 1
    13    8    9 ar
    14    8   37 1
    15    9   10 ar
    16    9   12 1
    17   10   11 ar
    18   10   38 1
    19   11   39 1
    20   12   17 ar
    21   12   13 ar
    22   13   14 ar
    23   13   40 1
    24   14   15 ar
    25   14   41 1
    26   15   16 ar
    27   16   17 ar
    28   16   18 1
    29   18   19 1
    30   18   42 1
    31   19   24 ar
    32   19   20 ar
    33   20   21 ar
    34   20   43 1
    35   21   22 ar
    36   21   44 1
    37   22   23 ar
    38   22   45 1
    39   23   24 ar
    40   23   25 1
    41   24   46 1
    42   25   26 1
    43   25   47 1
    44   25   48 1
    45   26   31 1
    46   26   27 1
    47   26   59 1
    48   27   28 1
    49   27   49 1
    50   27   50 1
    51   28   29 1
    52   28   51 1
    53   28   52 1
    54   29   30 1
    55   29   32 1
    56   29   53 1
    57   30   31 1
    58   30   54 1
    59   30   55 1
    60   31   56 1
    61   31   57 1
    62   32   58 1
@<TRIPOS>MOLECULE
CHEMBL375076
   41    44     0     0     0
SMALL
USER_CHARGES

@<TRIPOS>ATOM
      1 C1         -0.0187    1.5258    0.0104 C.3       1 <0>        -0.1598
      2 C2          0.0021   -0.0041    0.0020 C.3       1 <0>         0.1980
      3 H1          0.5293   -0.3651    0.8851 H         1 <0>         0.1072
      4 C3          0.7074   -0.4901   -1.2379 C.ar      1 <0>        -0.1055
      5 C4          0.0376   -0.5216   -2.4467 C.ar      1 <0>        -0.1159
      6 C5          0.6846   -0.9674   -3.5840 C.ar      1 <0>        -0.1132
      7 C6          2.0016   -1.3812   -3.5126 C.ar      1 <0>        -0.1110
      8 C7          2.6718   -1.3488   -2.3040 C.ar      1 <0>        -0.1121
      9 C8          2.0261   -0.8990   -1.1675 C.ar      1 <0>        -0.1033
     10 N1         -1.3723   -0.5112    0.0124 N.pl3     1 <0>        -0.6720
     11 C9         -2.0463   -0.6591    1.2122 C.ar      1 <0>         0.6129
     12 N2         -1.4348   -0.3320    2.3413 N.ar      1 <0>        -0.5449
     13 C10        -2.0477   -0.4595    3.5081 C.ar      1 <0>         0.2417
     14 C11        -3.3435   -0.9410    3.5421 C.ar      1 <0>        -0.2878
     15 C12        -3.9603   -1.2767    2.3375 C.ar      1 <0>         0.4074
     16 N3         -3.2882   -1.1189    1.2027 N.ar      1 <0>        -0.5824
     17 N4         -5.2651   -1.7657    2.3239 N.pl3     1 <0>        -0.3661
     18 C13        -6.0660   -1.9641    3.4092 C.cat     1 <0>         0.4063
     19 N5         -7.2218   -2.4312    3.0329 N.pl3     1 <0>        -0.4786
     20 C14        -7.2440   -2.5648    1.6863 C.ar      1 <0>         0.0848
     21 C15        -5.9910   -2.1345    1.2071 C.ar      1 <0>         0.0194
     22 C16        -5.7471   -2.1625   -0.1556 C.ar      1 <0>         0.1905
     23 N6         -6.6794   -2.5836   -0.9880 N.ar      1 <0>        -0.4378
     24 C17        -7.8664   -2.9911   -0.5721 C.ar      1 <0>         0.1365
     25 C18        -8.1910   -3.0054    0.7555 C.ar      1 <0>        -0.1271
     26 H2          1.0039    1.9031    0.0027 H         1 <0>         0.0778
     27 H3         -0.5459    1.8868   -0.8726 H         1 <0>         0.0612
     28 H4         -0.5289    1.8773    0.9072 H         1 <0>         0.0651
     29 H5         -0.9914   -0.1983   -2.5024 H         1 <0>         0.1179
     30 H6          0.1611   -0.9927   -4.5283 H         1 <0>         0.1269
     31 H7          2.5069   -1.7302   -4.4010 H         1 <0>         0.1274
     32 H8          3.7006   -1.6725   -2.2481 H         1 <0>         0.1288
     33 H9          2.5507   -0.8702   -0.2240 H         1 <0>         0.1270
     34 H10        -1.8100   -0.7432   -0.8215 H         1 <0>         0.4184
     35 H11        -1.5410   -0.1906    4.4232 H         1 <0>         0.1949
     36 H12        -3.8658   -1.0549    4.4805 H         1 <0>         0.1601
     37 H13        -5.7828   -1.7637    4.4320 H         1 <0>         0.2798
     38 H14        -4.7906   -1.8383   -0.5380 H         1 <0>         0.1927
     39 H15        -8.5936   -3.3258   -1.2970 H         1 <0>         0.1921
     40 H16        -9.1655   -3.3399    1.0793 H         1 <0>         0.1706
     41 H17        -7.9559   -2.6505    3.6278 H         1 <0>         0.4721
@<TRIPOS>BOND
     1    1    2 1
     2    1   26 1
     3    1   27 1
     4    1   28 1
     5    2    3 1
     6    2    4 1
     7    2   10 1
     8    4    9 ar
     9    4    5 ar
    10    5    6 ar
    11    5   29 1
    12    6    7 ar
    13    6   30 1
    14    7    8 ar
    15    7   31 1
    16    8    9 ar
    17    8   32 1
    18    9   33 1
    19   10   11 1
    20   10   34 1
    21   11   16 ar
    22   11   12 ar
    23   12   13 ar
    24   13   14 ar
    25   13   35 1
    26   14   15 ar
    27   14   36 1
    28   15   16 ar
    29   15   17 1
    30   17   21 1
    31   17   18 1
    32   18   19 2
    33   18   37 1
    34   19   20 1
    35   19   41 1
    36   20   25 ar
    37   20   21 ar
    38   21   22 ar
    39   22   23 ar
    40   22   38 1
    41   23   24 ar
    42   24   25 ar
    43   24   39 1
    44   25   40 1
@<TRIPOS>MOLECULE
CHEMBL191003
   39    41     0     0     0
SMALL
USER_CHARGES

@<TRIPOS>ATOM
      1 C1         -0.0095    1.3826    0.0704 C.ar      1 <0>        -0.0343
      2 C2          0.5587    1.0580   -1.1482 C.ar      1 <0>        -0.1609
      3 C3          1.7655    0.3862   -1.1955 C.ar      1 <0>         0.1753
      4 C4          2.4129    0.0342   -0.0053 C.ar      1 <0>        -0.1954
      5 C5          1.8304    0.3669    1.2233 C.ar      1 <0>         0.1741
      6 C6          0.6231    1.0388    1.2514 C.ar      1 <0>        -0.1610
      7 F1          2.4463    0.0317    2.3781 F         1 <0>        -0.1212
      8 C7          3.6999   -0.6827   -0.0456 C.2       1 <0>         0.6210
      9 O1          4.7383   -0.0615   -0.1600 O.2       1 <0>        -0.4669
     10 N1          3.7255   -2.0272    0.0446 N.am      1 <0>        -0.3962
     11 C8          4.8314   -2.8210    0.1249 C.2       1 <0>         0.5948
     12 N2          4.4249   -4.0694    0.1979 N.2       1 <0>        -0.5873
     13 C9          3.0869   -4.1118    0.1675 C.2       1 <0>         0.5191
     14 N3          2.6183   -2.8904    0.0808 N.2       1 <0>        -0.3480
     15 N4          2.3148   -5.2702    0.2247 N.pl3     1 <0>        -0.6226
     16 C10         2.9267   -6.5079    0.4407 C.ar      1 <0>         0.2365
     17 C11         4.1432   -6.5760    1.1080 C.ar      1 <0>        -0.1584
     18 C12         4.7450   -7.8008    1.3202 C.ar      1 <0>         0.0098
     19 C13         4.1379   -8.9586    0.8692 C.ar      1 <0>        -0.7033
     20 C14         2.9269   -8.8944    0.2046 C.ar      1 <0>         0.0112
     21 C15         2.3170   -7.6734   -0.0063 C.ar      1 <0>        -0.1777
     22 S1          4.9094  -10.5191    1.1415 S.o2      1 <0>         2.7034
     23 O2          4.4084  -11.3993    0.1448 O.2       1 <0>        -0.9656
     24 O3          6.2977  -10.2630    1.3036 O.2       1 <0>        -0.9650
     25 N5          4.3605  -11.0895    2.5960 N.pl3     1 <0>        -1.2510
     26 N6          6.1422   -2.3912    0.1281 N.pl3     1 <0>        -0.7911
     27 F2          2.3185    0.0697   -2.3868 F         1 <0>        -0.1201
     28 H1         -0.9506    1.9116    0.0998 H         1 <0>         0.1546
     29 H2          0.0576    1.3300   -2.0654 H         1 <0>         0.1549
     30 H3          0.1721    1.2963    2.1984 H         1 <0>         0.1546
     31 H4          1.3525   -5.2176    0.1147 H         1 <0>         0.4325
     32 H5          4.6180   -5.6722    1.4601 H         1 <0>         0.1556
     33 H6          5.6909   -7.8544    1.8385 H         1 <0>         0.1456
     34 H7          2.4556   -9.8005   -0.1466 H         1 <0>         0.1475
     35 H8          1.3691   -7.6243   -0.5215 H         1 <0>         0.1387
     36 H9          3.7284  -10.5673    3.1145 H         1 <0>         0.4165
     37 H10         4.6709  -11.9458    2.9296 H         1 <0>         0.4206
     38 H11         6.3422   -1.4439    0.0694 H         1 <0>         0.4292
     39 H12         6.8640   -3.0364    0.1890 H         1 <0>         0.4303
@<TRIPOS>BOND
     1    1    6 ar
     2    1    2 ar
     3    1   28 1
     4    2    3 ar
     5    2   29 1
     6    3    4 ar
     7    3   27 1
     8    4    5 ar
     9    4    8 1
    10    5    6 ar
    11    5    7 1
    12    6   30 1
    13    8    9 2
    14    8   10 am
    15   10   14 1
    16   10   11 1
    17   11   12 2
    18   11   26 1
    19   12   13 1
    20   13   14 2
    21   13   15 1
    22   15   16 1
    23   15   31 1
    24   16   21 ar
    25   16   17 ar
    26   17   18 ar
    27   17   32 1
    28   18   19 ar
    29   18   33 1
    30   19   20 ar
    31   19   22 1
    32   20   21 ar
    33   20   34 1
    34   21   35 1
    35   22   23 2
    36   22   24 2
    37   22   25 1
    38   25   36 1
    39   25   37 1
    40   26   38 1
    41   26   39 1
@<TRIPOS>MOLECULE
CHEMBL221376
   51    55     0     0     0
SMALL
USER_CHARGES

@<TRIPOS>ATOM
      1 C1         -0.0187    1.5258    0.0104 C.3       1 <0>        -0.1686
      2 C2          0.0021   -0.0041    0.0020 C.3       1 <0>         0.1892
      3 H1         -1.0205   -0.3814    0.0098 H         1 <0>         0.0992
      4 C3          0.7074   -0.4901   -1.2379 C.ar      1 <0>        -0.1053
      5 C4          2.0889   -0.5108   -1.2839 C.ar      1 <0>        -0.1134
      6 C5          2.7359   -0.9566   -2.4212 C.ar      1 <0>        -0.1128
      7 C6          2.0015   -1.3821   -3.5123 C.ar      1 <0>        -0.1095
      8 C7          0.6201   -1.3622   -3.4659 C.ar      1 <0>        -0.1121
      9 C8         -0.0269   -0.9205   -2.3270 C.ar      1 <0>        -0.1039
     10 N1          0.7106   -0.4894    1.1889 N.pl3     1 <0>        -0.6875
     11 C9          0.0325   -0.6376    2.3886 C.ar      1 <0>         0.4857
     12 C10        -1.3246   -0.3331    2.4748 C.ar      1 <0>        -0.2757
     13 C11        -1.9630   -0.4980    3.7023 C.ar      1 <0>         0.3394
     14 N2         -1.2577   -0.9386    4.7449 N.ar      1 <0>        -0.5709
     15 C12         0.0291   -1.2168    4.6230 C.ar      1 <0>         0.5587
     16 N3          0.6671   -1.0775    3.4717 N.ar      1 <0>        -0.5897
     17 N4          0.7313   -1.6742    5.7352 N.pl3     1 <0>        -0.3545
     18 C13         0.2235   -1.8818    6.9836 C.cat     1 <0>         0.4269
     19 N5          1.1587   -2.3121    7.7810 N.pl3     1 <0>        -0.4844
     20 C14         2.3266   -2.4105    7.1044 C.ar      1 <0>         0.0859
     21 C15         2.0720   -2.0082    5.7785 C.ar      1 <0>         0.0268
     22 C16         3.1095   -2.0200    4.8618 C.ar      1 <0>         0.1911
     23 N6          4.3158   -2.4060    5.2297 N.ar      1 <0>        -0.4393
     24 C17         4.5881   -2.7921    6.4644 C.ar      1 <0>         0.1352
     25 C18         3.6272   -2.8049    7.4364 C.ar      1 <0>        -0.1276
     26 C19        -3.4053   -0.1878    3.8474 C.2       1 <0>        -0.2334
     27 C20        -4.2642    0.2769    2.8310 C.2       1 <0>         0.0883
     28 N7         -5.4543    0.4325    3.3463 N.2       1 <0>        -0.2805
     29 N8         -5.4040    0.0768    4.6994 N.pl3     1 <0>        -0.3601
     30 C21        -4.1460   -0.3057    4.9889 C.2       1 <0>         0.1259
     31 C22        -6.5285    0.1099    5.6379 C.3       1 <0>         0.0909
     32 H2          1.0039    1.9031    0.0027 H         1 <0>         0.0679
     33 H3         -0.5459    1.8868   -0.8726 H         1 <0>         0.0809
     34 H4         -0.5289    1.8773    0.9072 H         1 <0>         0.0656
     35 H5          2.6626   -0.1783   -0.4315 H         1 <0>         0.1191
     36 H6          3.8152   -0.9721   -2.4575 H         1 <0>         0.1273
     37 H7          2.5070   -1.7297   -4.4012 H         1 <0>         0.1276
     38 H8          0.0463   -1.6944   -4.3185 H         1 <0>         0.1290
     39 H9         -1.1062   -0.9085   -2.2894 H         1 <0>         0.1269
     40 H10         1.6544   -0.7070    1.1351 H         1 <0>         0.4138
     41 H11        -1.8680    0.0222    1.6118 H         1 <0>         0.1619
     42 H12        -0.8043   -1.7134    7.2694 H         1 <0>         0.2795
     43 H13         2.9303   -1.7126    3.8421 H         1 <0>         0.1940
     44 H14         5.5937   -3.0985    6.7121 H         1 <0>         0.1912
     45 H15         3.8652   -3.1246    8.4401 H         1 <0>         0.1699
     46 H16        -3.9867    0.4709    1.8054 H         1 <0>         0.1929
     47 H17        -3.7870   -0.6426    5.9501 H         1 <0>         0.1863
     48 H18        -7.0411   -0.8520    5.6248 H         1 <0>         0.0860
     49 H19        -6.1571    0.3099    6.6430 H         1 <0>         0.0951
     50 H20        -7.2238    0.8962    5.3443 H         1 <0>         0.0995
     51 H21         1.0367   -2.5290    8.7186 H         1 <0>         0.4711
@<TRIPOS>BOND
     1    1    2 1
     2    1   32 1
     3    1   33 1
     4    1   34 1
     5    2    3 1
     6    2    4 1
     7    2   10 1
     8    4    9 ar
     9    4    5 ar
    10    5    6 ar
    11    5   35 1
    12    6    7 ar
    13    6   36 1
    14    7    8 ar
    15    7   37 1
    16    8    9 ar
    17    8   38 1
    18    9   39 1
    19   10   11 1
    20   10   40 1
    21   11   16 ar
    22   11   12 ar
    23   12   13 ar
    24   12   41 1
    25   13   14 ar
    26   13   26 1
    27   14   15 ar
    28   15   16 ar
    29   15   17 1
    30   17   21 1
    31   17   18 1
    32   18   19 2
    33   18   42 1
    34   19   20 1
    35   19   51 1
    36   20   25 ar
    37   20   21 ar
    38   21   22 ar
    39   22   23 ar
    40   22   43 1
    41   23   24 ar
    42   24   25 ar
    43   24   44 1
    44   25   45 1
    45   26   30 2
    46   26   27 1
    47   27   28 2
    48   27   46 1
    49   28   29 1
    50   29   30 1
    51   29   31 1
    52   30   47 1
    53   31   48 1
    54   31   49 1
    55   31   50 1
@<TRIPOS>MOLECULE
CHEMBL578974
   24    26     0     0     0
SMALL
USER_CHARGES

@<TRIPOS>ATOM
      1 C1         -0.0167    1.3792    0.0096 C.ar      1 <0>        -0.1028
      2 C2          1.1685    2.0928    0.0021 C.ar      1 <0>        -0.1253
      3 C3          2.3774    1.4278   -0.0130 C.ar      1 <0>        -0.0736
      4 C4          2.4029    0.0333   -0.0207 C.ar      1 <0>        -0.0560
      5 C5          1.2046   -0.6805   -0.0131 C.ar      1 <0>        -0.0898
      6 C6          0.0021   -0.0041    0.0020 C.ar      1 <0>        -0.1247
      7 C7          3.6971   -0.6867   -0.0375 C.ar      1 <0>         0.2707
      8 C8          3.8520   -1.9065    0.6411 C.ar      1 <0>        -0.1988
      9 C9          2.9868   -2.7574    1.4529 C.2       1 <0>        -0.1776
     10 C10         3.7251   -3.8145    1.8319 C.2       1 <0>         0.0624
     11 N1          4.9929   -3.7027    1.3247 N.pl3     1 <0>        -0.5723
     12 H1          5.7062   -4.3453    1.4633 H         1 <0>         0.4246
     13 C11         5.1052   -2.5514    0.5936 C.ar      1 <0>         0.3199
     14 N2          6.0893   -1.9778   -0.0924 N.ar      1 <0>        -0.5342
     15 C12         5.8987   -0.8333   -0.7137 C.ar      1 <0>         0.3201
     16 N3          4.7429   -0.1970   -0.7009 N.ar      1 <0>        -0.5314
     17 H2         -0.9604    1.9042    0.0260 H         1 <0>         0.1258
     18 H3          1.1475    3.1726    0.0078 H         1 <0>         0.1280
     19 H4          3.3020    1.9859   -0.0192 H         1 <0>         0.1307
     20 H5          1.2180   -1.7604   -0.0194 H         1 <0>         0.1291
     21 H6         -0.9264   -0.5556    0.0079 H         1 <0>         0.1282
     22 H7          1.9521   -2.5727    1.7014 H         1 <0>         0.1580
     23 H8          3.3719   -4.6302    2.4453 H         1 <0>         0.1861
     24 H9          6.7224   -0.3983   -1.2603 H         1 <0>         0.2029
@<TRIPOS>BOND
     1    1    6 ar
     2    1    2 ar
     3    1   17 1
     4    2    3 ar
     5    2   18 1
     6    3    4 ar
     7    3   19 1
     8    4    5 ar
     9    4    7 1
    10    5    6 ar
    11    5   20 1
    12    6   21 1
    13    7   16 ar
    14    7    8 ar
    15    8   13 ar
    16    8    9 1
    17    9   10 2
    18    9   22 1
    19   10   11 1
    20   10   23 1
    21   11   12 1
    22   11   13 1
    23   13   14 ar
    24   14   15 ar
    25   15   16 ar
    26   15   24 1
@<TRIPOS>MOLECULE
CHEMBL583105
   25    27     0     0     0
SMALL
USER_CHARGES

@<TRIPOS>ATOM
      1 C1         -0.0167    1.3792    0.0096 C.ar      1 <0>        -0.1203
      2 C2          1.1686    2.0925    0.0021 C.ar      1 <0>        -0.1169
      3 C3          2.3774    1.4270   -0.0134 C.ar      1 <0>        -0.1101
      4 C4          2.4026    0.0331   -0.0211 C.ar      1 <0>        -0.0124
      5 C5          1.2048   -0.6804   -0.0130 C.ar      1 <0>        -0.1079
      6 C6          0.0021   -0.0041    0.0020 C.ar      1 <0>        -0.1165
      7 C7          3.6978   -0.6876   -0.0382 C.2       1 <0>        -0.1261
      8 C8          4.7389   -0.4629   -0.8762 C.2       1 <0>         0.0871
      9 N1          5.7584   -1.3251   -0.5873 N.pl3     1 <0>        -0.5727
     10 H1          6.6085   -1.3544   -1.0534 H         1 <0>         0.4258
     11 C9          5.4069   -2.1459    0.4593 C.ar      1 <0>         0.2876
     12 C10         4.1069   -1.7820    0.8549 C.ar      1 <0>        -0.1271
     13 C11         3.4961   -2.4548    1.9127 C.ar      1 <0>        -0.0159
     14 C12         4.2067   -3.4637    2.5394 C.ar      1 <0>        -0.1158
     15 C13         5.4864   -3.7678    2.0995 C.ar      1 <0>         0.1548
     16 N2          6.0396   -3.1246    1.0932 N.ar      1 <0>        -0.4804
     17 Cl1         3.5034   -4.3394    3.8631 Cl        1 <0>        -0.0512
     18 H2         -0.9603    1.9042    0.0260 H         1 <0>         0.1224
     19 H3          1.1478    3.1722    0.0081 H         1 <0>         0.1240
     20 H4          3.3021    1.9850   -0.0199 H         1 <0>         0.1229
     21 H5          1.2183   -1.7603   -0.0189 H         1 <0>         0.1213
     22 H6         -0.9264   -0.5557    0.0079 H         1 <0>         0.1240
     23 H7          4.7594    0.2849   -1.6552 H         1 <0>         0.1859
     24 H8          2.4979   -2.1958    2.2338 H         1 <0>         0.1455
     25 H9          6.0394   -4.5551    2.5901 H         1 <0>         0.1721
@<TRIPOS>BOND
     1    1    6 ar
     2    1    2 ar
     3    1   18 1
     4    2    3 ar
     5    2   19 1
     6    3    4 ar
     7    3   20 1
     8    4    5 ar
     9    4    7 1
    10    5    6 ar
    11    5   21 1
    12    6   22 1
    13    7   12 1
    14    7    8 2
    15    8    9 1
    16    8   23 1
    17    9   10 1
    18    9   11 1
    19   11   16 ar
    20   11   12 ar
    21   12   13 ar
    22   13   14 ar
    23   13   24 1
    24   14   15 ar
    25   14   17 1
    26   15   16 ar
    27   15   25 1
@<TRIPOS>MOLECULE
CHEMBL557844
   45    48     0     0     0
SMALL
USER_CHARGES

@<TRIPOS>ATOM
      1 C1         -0.0187    1.5258    0.0104 C.3       1 <0>        -0.1707
      2 C2          0.0021   -0.0041    0.0020 C.3       1 <0>         0.1474
      3 H1          0.5123   -0.3556   -0.8948 H         1 <0>         0.1023
      4 C3          0.7421   -0.5109    1.2415 C.3       1 <0>         0.0487
      5 O1          0.1431    0.0444    2.4141 O.3       1 <0>        -0.3900
      6 C4          0.7626   -0.3678    3.6341 C.3       1 <0>         0.0299
      7 N1         -1.3723   -0.5112    0.0124 N.pl3     1 <0>        -0.6830
      8 C5         -2.0701   -0.6465   -1.1775 C.ar      1 <0>         0.4861
      9 C6         -1.4714   -0.3084   -2.3895 C.ar      1 <0>        -0.2779
     10 C7         -2.2129   -0.4621   -3.5595 C.ar      1 <0>         0.3285
     11 N2         -3.4614   -0.9243   -3.4787 N.ar      1 <0>        -0.5509
     12 C8         -3.9944   -1.2342   -2.3091 C.ar      1 <0>         0.5594
     13 N3         -3.3185   -1.1060   -1.1784 N.ar      1 <0>        -0.5942
     14 N4         -5.3011   -1.7139   -2.2662 N.pl3     1 <0>        -0.3561
     15 C9         -5.9956   -2.0710   -1.1484 C.cat     1 <0>         0.4273
     16 N5         -7.1900   -2.4749   -1.4740 N.pl3     1 <0>        -0.4835
     17 C10        -7.3456   -2.4058   -2.8166 C.ar      1 <0>         0.0859
     18 C11        -6.1384   -1.9111   -3.3483 C.ar      1 <0>         0.0272
     19 C12        -6.0289   -1.7363   -4.7173 C.ar      1 <0>         0.1909
     20 N6         -7.0445   -2.0273   -5.5069 N.ar      1 <0>        -0.4384
     21 C13        -8.1917   -2.4903   -5.0407 C.ar      1 <0>         0.1358
     22 C14        -8.3859   -2.7010   -3.7043 C.ar      1 <0>        -0.1274
     23 C15        -1.6228   -0.1165   -4.8742 C.2       1 <0>        -0.1813
     24 C16        -2.2992   -0.1179   -6.1770 C.2       1 <0>        -0.1788
     25 C17        -1.3746    0.2608   -7.0747 C.2       1 <0>        -0.0227
     26 O2         -0.2151    0.4880   -6.4389 O.3       1 <0>        -0.1661
     27 C18        -0.3444    0.2733   -5.1230 C.2       1 <0>         0.0393
     28 H2          1.0039    1.9031    0.0027 H         1 <0>         0.0778
     29 H3         -0.5459    1.8868   -0.8726 H         1 <0>         0.0602
     30 H4         -0.5289    1.8773    0.9072 H         1 <0>         0.0766
     31 H5          0.6803   -1.5984    1.2822 H         1 <0>         0.0615
     32 H6          1.7879   -0.2080    1.1895 H         1 <0>         0.0769
     33 H7          0.2503    0.0965    4.4767 H         1 <0>         0.0919
     34 H8          0.7013   -1.4523    3.7244 H         1 <0>         0.0446
     35 H9          1.8089   -0.0620    3.6317 H         1 <0>         0.0478
     36 H10        -1.7940   -0.7522    0.8520 H         1 <0>         0.4195
     37 H11        -0.4580    0.0638   -2.4214 H         1 <0>         0.1614
     38 H12        -5.6112   -2.0256   -0.1402 H         1 <0>         0.2794
     39 H13        -5.1090   -1.3602   -5.1401 H         1 <0>         0.1958
     40 H14        -8.9914   -2.7122   -5.7318 H         1 <0>         0.1916
     41 H15        -9.3296   -3.0783   -3.3389 H         1 <0>         0.1702
     42 H16        -3.3303   -0.3721   -6.3736 H         1 <0>         0.1594
     43 H17        -1.5381    0.3653   -8.1371 H         1 <0>         0.2136
     44 H18         0.4356    0.3883   -4.3849 H         1 <0>         0.2127
     45 H19        -7.8662   -2.7792   -0.8486 H         1 <0>         0.4714
@<TRIPOS>BOND
     1    1    2 1
     2    1   28 1
     3    1   29 1
     4    1   30 1
     5    2    3 1
     6    2    4 1
     7    2    7 1
     8    4    5 1
     9    4   31 1
    10    4   32 1
    11    5    6 1
    12    6   33 1
    13    6   34 1
    14    6   35 1
    15    7    8 1
    16    7   36 1
    17    8   13 ar
    18    8    9 ar
    19    9   10 ar
    20    9   37 1
    21   10   11 ar
    22   10   23 1
    23   11   12 ar
    24   12   13 ar
    25   12   14 1
    26   14   18 1
    27   14   15 1
    28   15   16 2
    29   15   38 1
    30   16   17 1
    31   16   45 1
    32   17   22 ar
    33   17   18 ar
    34   18   19 ar
    35   19   20 ar
    36   19   39 1
    37   20   21 ar
    38   21   22 ar
    39   21   40 1
    40   22   41 1
    41   23   27 2
    42   23   24 1
    43   24   25 2
    44   24   42 1
    45   25   26 1
    46   25   43 1
    47   26   27 1
    48   27   44 1
@<TRIPOS>MOLECULE
CHEMBL218439
   52    56     0     0     0
SMALL
USER_CHARGES

@<TRIPOS>ATOM
      1 C1         -0.2947    1.7687    0.7466 C.3       1 <0>        -0.0486
      2 N1         -0.2568    0.3150    0.5383 N.4       1 <0>        -0.3871
      3 C2         -1.6240   -0.2191    0.5779 C.3       1 <0>        -0.0224
      4 C3         -1.5967   -1.7150    0.2473 C.3       1 <0>         0.0917
      5 N2         -0.6587   -2.3786    1.1660 N.pl3     1 <0>        -0.6038
      6 C4          0.6894   -1.8080    1.3117 C.3       1 <0>         0.0973
      7 C5          0.5541   -0.3077    1.5921 C.3       1 <0>        -0.0231
      8 C6         -1.0345   -3.5090    1.8745 C.ar      1 <0>         0.4984
      9 C7         -2.2735   -4.1045    1.6486 C.ar      1 <0>        -0.2730
     10 C8         -2.6066   -5.2360    2.3826 C.ar      1 <0>         0.4315
     11 N3         -1.7381   -5.7105    3.2708 N.ar      1 <0>        -0.5736
     12 C9         -0.5695   -5.1194    3.4598 C.ar      1 <0>         0.5946
     13 N4         -0.2148   -4.0436    2.7759 N.ar      1 <0>        -0.5894
     14 N5          0.3128   -5.6468    4.3992 N.pl3     1 <0>        -0.3656
     15 C10         1.5008   -5.1024    4.7885 C.cat     1 <0>         0.4264
     16 N6          2.0673   -5.8588    5.6843 N.pl3     1 <0>        -0.4743
     17 C11         1.2870   -6.9365    5.9320 C.ar      1 <0>         0.0868
     18 C12         0.1450   -6.8170    5.1157 C.ar      1 <0>         0.0220
     19 C13        -0.8304   -7.7977    5.1771 C.ar      1 <0>         0.1871
     20 N7         -0.6881   -8.8251    5.9918 N.ar      1 <0>        -0.4283
     21 C14         0.3692   -8.9663    6.7729 C.ar      1 <0>         0.1429
     22 C15         1.3836   -8.0503    6.7731 C.ar      1 <0>        -0.1209
     23 O1         -3.8015   -5.8480    2.1962 O.3       1 <0>        -0.2071
     24 C16        -4.4465   -6.3348    3.2892 C.ar      1 <0>         0.0951
     25 C17        -3.9417   -6.0938    4.5586 C.ar      1 <0>        -0.1645
     26 C18        -4.5990   -6.5896    5.6679 C.ar      1 <0>        -0.0836
     27 C19        -5.7591   -7.3263    5.5143 C.ar      1 <0>        -0.1070
     28 C20        -6.2648   -7.5689    4.2507 C.ar      1 <0>        -0.0729
     29 C21        -5.6147   -7.0694    3.1374 C.ar      1 <0>        -0.0399
     30 Cl1        -6.2543   -7.3670    1.5512 Cl        1 <0>        -0.0353
     31 H1          0.7190    2.1676    0.7094 H         1 <0>         0.1295
     32 H2         -0.8965    2.2322   -0.0351 H         1 <0>         0.1305
     33 H3         -0.7347    1.9849    1.7201 H         1 <0>         0.1238
     34 H4         -2.0419   -0.0746    1.5742 H         1 <0>         0.1368
     35 H5         -2.2399    0.3037   -0.1539 H         1 <0>         0.1543
     36 H6         -2.5938   -2.1365    0.3745 H         1 <0>         0.1361
     37 H7         -1.2643   -1.8568   -0.7810 H         1 <0>         0.1119
     38 H8          1.2037   -2.2910    2.1426 H         1 <0>         0.1363
     39 H9          1.2526   -1.9592    0.3909 H         1 <0>         0.1037
     40 H10         1.5434    0.1498    1.6076 H         1 <0>         0.1499
     41 H11         0.0704   -0.1606    2.5577 H         1 <0>         0.1344
     42 H12        -2.9588   -3.6961    0.9205 H         1 <0>         0.1772
     43 H13         1.9121   -4.1787    4.4089 H         1 <0>         0.2782
     44 H14        -1.7107   -7.7210    4.5561 H         1 <0>         0.1924
     45 H15         0.4351   -9.8271    7.4217 H         1 <0>         0.1967
     46 H16         2.2402   -8.1791    7.4182 H         1 <0>         0.1750
     47 H17        -3.0354   -5.5191    4.6796 H         1 <0>         0.1391
     48 H18        -4.2061   -6.4020    6.6563 H         1 <0>         0.1367
     49 H19        -6.2709   -7.7132    6.3831 H         1 <0>         0.1465
     50 H20        -7.1706   -8.1451    4.1334 H         1 <0>         0.1541
     51 H21         2.9200   -5.6775    6.1097 H         1 <0>         0.4743
     52 H22         0.1534    0.1161   -0.3619 H         1 <0>         0.4289
@<TRIPOS>BOND
     1    1    2 1
     2    1   31 1
     3    1   32 1
     4    1   33 1
     5    2    7 1
     6    2    3 1
     7    2   52 1
     8    3    4 1
     9    3   34 1
    10    3   35 1
    11    4    5 1
    12    4   36 1
    13    4   37 1
    14    5    6 1
    15    5    8 1
    16    6    7 1
    17    6   38 1
    18    6   39 1
    19    7   40 1
    20    7   41 1
    21    8   13 ar
    22    8    9 ar
    23    9   10 ar
    24    9   42 1
    25   10   11 ar
    26   10   23 1
    27   11   12 ar
    28   12   13 ar
    29   12   14 1
    30   14   18 1
    31   14   15 1
    32   15   16 2
    33   15   43 1
    34   16   17 1
    35   16   51 1
    36   17   22 ar
    37   17   18 ar
    38   18   19 ar
    39   19   20 ar
    40   19   44 1
    41   20   21 ar
    42   21   22 ar
    43   21   45 1
    44   22   46 1
    45   23   24 1
    46   24   29 ar
    47   24   25 ar
    48   25   26 ar
    49   25   47 1
    50   26   27 ar
    51   26   48 1
    52   27   28 ar
    53   27   49 1
    54   28   29 ar
    55   28   50 1
    56   29   30 1
@<TRIPOS>MOLECULE
CHEMBL218439__1
   51    55     0     0     0
SMALL
USER_CHARGES

@<TRIPOS>ATOM
      1 C1         -0.3272    1.7376    0.7479 C.3       1 <0>         0.0229
      2 N1         -0.2785    0.2838    0.5427 N.3       1 <0>        -0.5432
      3 C2         -1.6314   -0.2858    0.4880 C.3       1 <0>         0.0374
      4 C3         -1.5441   -1.7642    0.0942 C.3       1 <0>         0.1148
      5 N2         -0.6216   -2.4403    1.0189 N.pl3     1 <0>        -0.5720
      6 C4          0.7083   -1.8491    1.2312 C.3       1 <0>         0.1206
      7 C5          0.5323   -0.3674    1.5802 C.3       1 <0>         0.0372
      8 C6         -0.9954   -3.6038    1.6726 C.ar      1 <0>         0.4994
      9 C7         -2.2127   -4.2165    1.3833 C.ar      1 <0>        -0.2749
     10 C8         -2.5446   -5.3812    2.0639 C.ar      1 <0>         0.4177
     11 N3         -1.6956   -5.8701    2.9632 N.ar      1 <0>        -0.5895
     12 C9         -0.5474   -5.2620    3.2131 C.ar      1 <0>         0.5824
     13 N4         -0.1943   -4.1542    2.5812 N.ar      1 <0>        -0.5902
     14 N5          0.3148   -5.8053    4.1620 N.pl3     1 <0>        -0.3585
     15 C10         1.4769   -5.2508    4.6109 C.cat     1 <0>         0.4297
     16 N6          2.0301   -6.0279    5.4973 N.pl3     1 <0>        -0.4811
     17 C11         1.2662   -7.1302    5.6789 C.ar      1 <0>         0.0870
     18 C12         0.1495   -7.0045    4.8293 C.ar      1 <0>         0.0251
     19 C13        -0.8053   -8.0071    4.8218 C.ar      1 <0>         0.1892
     20 N7         -0.6673   -9.0608    5.6030 N.ar      1 <0>        -0.4342
     21 C14         0.3665   -9.2087    6.4137 C.ar      1 <0>         0.1371
     22 C15         1.3597   -8.2722    6.4817 C.ar      1 <0>        -0.1258
     23 O1         -3.7188   -6.0109    1.8149 O.3       1 <0>        -0.2103
     24 C16        -4.3886   -6.5514    2.8669 C.ar      1 <0>         0.1058
     25 C17        -3.9317   -6.3471    4.1607 C.ar      1 <0>        -0.1649
     26 C18        -4.6141   -6.8976    5.2283 C.ar      1 <0>        -0.0842
     27 C19        -5.7518   -7.6523    5.0088 C.ar      1 <0>        -0.1150
     28 C20        -6.2098   -7.8583    3.7207 C.ar      1 <0>        -0.0754
     29 C21        -5.5345   -7.3043    2.6490 C.ar      1 <0>        -0.0444
     30 Cl1        -6.1145   -7.5561    1.0323 Cl        1 <0>        -0.0400
     31 H1          0.6833    2.1442    0.7082 H         1 <0>         0.0757
     32 H2         -0.9338    2.1947   -0.0339 H         1 <0>         0.0762
     33 H3         -0.7674    1.9525    1.7216 H         1 <0>         0.0296
     34 H4         -2.1031   -0.1973    1.4666 H         1 <0>         0.0433
     35 H5         -2.2234    0.2533   -0.2516 H         1 <0>         0.1008
     36 H6         -2.5316   -2.2204    0.1634 H         1 <0>         0.0978
     37 H7         -1.1686   -1.8499   -0.9255 H         1 <0>         0.0966
     38 H8          1.2100   -2.3615    2.0520 H         1 <0>         0.0988
     39 H9          1.3003   -1.9430    0.3208 H         1 <0>         0.0881
     40 H10         1.5096    0.1125    1.6327 H         1 <0>         0.0960
     41 H11         0.0305   -0.2778    2.5436 H         1 <0>         0.0407
     42 H12        -2.8824   -3.7959    0.6478 H         1 <0>         0.1749
     43 H13         1.8799   -4.3052    4.2794 H         1 <0>         0.2798
     44 H14        -1.6660   -7.9259    4.1746 H         1 <0>         0.1934
     45 H15         0.4300  -10.0915    7.0326 H         1 <0>         0.1927
     46 H16         2.1971   -8.4069    7.1503 H         1 <0>         0.1713
     47 H17        -3.0428   -5.7584    4.3332 H         1 <0>         0.1425
     48 H18        -4.2584   -6.7386    6.2356 H         1 <0>         0.1341
     49 H19        -6.2833   -8.0819    5.8450 H         1 <0>         0.1425
     50 H20        -7.0982   -8.4488    3.5519 H         1 <0>         0.1502
     51 H21         2.8640   -5.8446    5.9576 H         1 <0>         0.4723
@<TRIPOS>BOND
     1    1    2 1
     2    1   31 1
     3    1   32 1
     4    1   33 1
     5    2    7 1
     6    2    3 1
     7    3    4 1
     8    3   34 1
     9    3   35 1
    10    4    5 1
    11    4   36 1
    12    4   37 1
    13    5    6 1
    14    5    8 1
    15    6    7 1
    16    6   38 1
    17    6   39 1
    18    7   40 1
    19    7   41 1
    20    8   13 ar
    21    8    9 ar
    22    9   10 ar
    23    9   42 1
    24   10   11 ar
    25   10   23 1
    26   11   12 ar
    27   12   13 ar
    28   12   14 1
    29   14   18 1
    30   14   15 1
    31   15   16 2
    32   15   43 1
    33   16   17 1
    34   16   51 1
    35   17   22 ar
    36   17   18 ar
    37   18   19 ar
    38   19   20 ar
    39   19   44 1
    40   20   21 ar
    41   21   22 ar
    42   21   45 1
    43   22   46 1
    44   23   24 1
    45   24   29 ar
    46   24   25 ar
    47   25   26 ar
    48   25   47 1
    49   26   27 ar
    50   26   48 1
    51   27   28 ar
    52   27   49 1
    53   28   29 ar
    54   28   50 1
    55   29   30 1
@<TRIPOS>MOLECULE
CHEMBL375296
   59    63     0     0     0
SMALL
USER_CHARGES

@<TRIPOS>ATOM
      1 C1         -0.2306    0.8855    0.3441 C.3       1 <0>        -0.1675
      2 C2         -0.0000   -0.6180    0.1788 C.3       1 <0>         0.1919
      3 H1          0.6126   -0.9843    1.0026 H         1 <0>         0.0958
      4 C3         -1.3266   -1.3331    0.1827 C.ar      1 <0>        -0.1138
      5 C4         -2.0975   -1.3656   -0.9643 C.ar      1 <0>        -0.1133
      6 C5         -3.3143   -2.0216   -0.9608 C.ar      1 <0>        -0.1099
      7 C6         -3.7600   -2.6453    0.1896 C.ar      1 <0>        -0.1044
      8 C7         -2.9886   -2.6136    1.3362 C.ar      1 <0>        -0.1107
      9 C8         -1.7698   -1.9613    1.3315 C.ar      1 <0>        -0.1043
     10 N1          0.6869   -0.8701   -1.0903 N.pl3     1 <0>        -0.6798
     11 C9          2.0688   -0.7852   -1.1592 C.ar      1 <0>         0.5077
     12 C10         2.8134   -0.4669   -0.0270 C.ar      1 <0>        -0.3420
     13 C11         4.1980   -0.3932   -0.1447 C.ar      1 <0>         0.4982
     14 N2          4.7606   -0.6281   -1.3282 N.ar      1 <0>        -0.6177
     15 C12         4.0206   -0.9280   -2.3830 C.ar      1 <0>         0.6035
     16 N3          2.7022   -1.0125   -2.3077 N.ar      1 <0>        -0.5943
     17 N4          4.6462   -1.1670   -3.6039 N.pl3     1 <0>        -0.3615
     18 C13         5.9877   -1.1316   -3.8462 C.cat     1 <0>         0.4245
     19 N5          6.2234   -1.4041   -5.0976 N.pl3     1 <0>        -0.4779
     20 C14         5.0561   -1.6324   -5.7433 C.ar      1 <0>         0.0853
     21 C15         4.0239   -1.4901   -4.7951 C.ar      1 <0>         0.0255
     22 C16         2.7123   -1.6794   -5.1962 C.ar      1 <0>         0.1898
     23 N6          2.4397   -1.9912   -6.4484 N.ar      1 <0>        -0.4337
     24 C17         3.3841   -2.1353   -7.3622 C.ar      1 <0>         0.1408
     25 C18         4.7048   -1.9592   -7.0575 C.ar      1 <0>        -0.1232
     26 N7          4.9808   -0.0791    0.9554 N.pl3     1 <0>        -0.6115
     27 C19         6.4454   -0.2066    0.9027 C.3       1 <0>         0.0998
     28 C20         7.0652    1.1024    1.4030 C.3       1 <0>        -0.0233
     29 N8          6.5318    1.4180    2.7341 N.4       1 <0>        -0.3864
     30 C21         5.0883    1.6724    2.6470 C.3       1 <0>        -0.0224
     31 C22         4.3710    0.3970    2.2066 C.3       1 <0>         0.0968
     32 C23         7.2068    2.6123    3.2596 C.3       1 <0>        -0.0485
     33 H2          0.7288    1.4027    0.3413 H         1 <0>         0.0597
     34 H3         -0.8433    1.2518   -0.4797 H         1 <0>         0.0716
     35 H4         -0.7418    1.0730    1.2884 H         1 <0>         0.0824
     36 H5         -1.7494   -0.8783   -1.8630 H         1 <0>         0.1191
     37 H6         -3.9170   -2.0464   -1.8566 H         1 <0>         0.1301
     38 H7         -4.7110   -3.1572    0.1925 H         1 <0>         0.1308
     39 H8         -3.3369   -3.1006    2.2350 H         1 <0>         0.1308
     40 H9         -1.1654   -1.9396    2.2263 H         1 <0>         0.1245
     41 H10         0.1748   -1.0963   -1.8824 H         1 <0>         0.4183
     42 H11         2.3281   -0.2812    0.9198 H         1 <0>         0.1594
     43 H12         6.7442   -0.9097   -3.1081 H         1 <0>         0.2768
     44 H13         1.9099   -1.5717   -4.4813 H         1 <0>         0.1938
     45 H14         3.1054   -2.3918   -8.3736 H         1 <0>         0.1949
     46 H15         5.4647   -2.0822   -7.8150 H         1 <0>         0.1733
     47 H16         6.7646   -1.0304    1.5411 H         1 <0>         0.0987
     48 H17         6.7603   -0.3919   -0.1243 H         1 <0>         0.1349
     49 H18         8.1481    0.9926    1.4620 H         1 <0>         0.1474
     50 H19         6.8187    1.9086    0.7121 H         1 <0>         0.1334
     51 H20         4.7144    1.9826    3.6228 H         1 <0>         0.1516
     52 H21         4.9016    2.4614    1.9185 H         1 <0>         0.1351
     53 H22         3.3150    0.6105    2.0412 H         1 <0>         0.1318
     54 H23         4.4771   -0.3649    2.9789 H         1 <0>         0.1056
     55 H24         7.0320    3.4533    2.5886 H         1 <0>         0.1232
     56 H25         6.8117    2.8477    4.2478 H         1 <0>         0.1295
     57 H26         8.2776    2.4220    3.3323 H         1 <0>         0.1289
     58 H27         7.1028   -1.4380   -5.5054 H         1 <0>         0.4729
     59 H28         6.6982    0.6402    3.3549 H         1 <0>         0.4280
@<TRIPOS>BOND
     1    1    2 1
     2    1   33 1
     3    1   34 1
     4    1   35 1
     5    2    3 1
     6    2    4 1
     7    2   10 1
     8    4    9 ar
     9    4    5 ar
    10    5    6 ar
    11    5   36 1
    12    6    7 ar
    13    6   37 1
    14    7    8 ar
    15    7   38 1
    16    8    9 ar
    17    8   39 1
    18    9   40 1
    19   10   11 1
    20   10   41 1
    21   11   16 ar
    22   11   12 ar
    23   12   13 ar
    24   12   42 1
    25   13   14 ar
    26   13   26 1
    27   14   15 ar
    28   15   16 ar
    29   15   17 1
    30   17   21 1
    31   17   18 1
    32   18   19 2
    33   18   43 1
    34   19   20 1
    35   19   58 1
    36   20   25 ar
    37   20   21 ar
    38   21   22 ar
    39   22   23 ar
    40   22   44 1
    41   23   24 ar
    42   24   25 ar
    43   24   45 1
    44   25   46 1
    45   26   31 1
    46   26   27 1
    47   27   28 1
    48   27   47 1
    49   27   48 1
    50   28   29 1
    51   28   49 1
    52   28   50 1
    53   29   30 1
    54   29   32 1
    55   29   59 1
    56   30   31 1
    57   30   51 1
    58   30   52 1
    59   31   53 1
    60   31   54 1
    61   32   55 1
    62   32   56 1
    63   32   57 1
@<TRIPOS>MOLECULE
CHEMBL375296__1
   58    62     0     0     0
SMALL
USER_CHARGES

@<TRIPOS>ATOM
      1 C1          0.3943    0.8918    0.0294 C.3       1 <0>        -0.1671
      2 C2          0.1723   -0.6178   -0.0830 C.3       1 <0>         0.1917
      3 H1          0.5880   -0.9771   -1.0244 H         1 <0>         0.0968
      4 C3          0.8561   -1.3130    1.0659 C.ar      1 <0>        -0.1048
      5 C4          0.2494   -1.3564    2.3073 C.ar      1 <0>        -0.1131
      6 C5          0.8767   -1.9941    3.3612 C.ar      1 <0>        -0.1127
      7 C6          2.1104   -2.5888    3.1737 C.ar      1 <0>        -0.1099
      8 C7          2.7167   -2.5462    1.9321 C.ar      1 <0>        -0.1122
      9 C8          2.0875   -1.9122    0.8771 C.ar      1 <0>        -0.1044
     10 N1         -1.2638   -0.9046   -0.0424 N.pl3     1 <0>        -0.6899
     11 C9         -2.0163   -0.8415   -1.2048 C.ar      1 <0>         0.5016
     12 C10        -1.4161   -0.5123   -2.4168 C.ar      1 <0>        -0.3480
     13 C11        -2.2120   -0.4614   -3.5571 C.ar      1 <0>         0.5011
     14 N2         -3.5122   -0.7274   -3.4517 N.ar      1 <0>        -0.6142
     15 C12        -4.0481   -1.0369   -2.2824 C.ar      1 <0>         0.5888
     16 N3         -3.3217   -1.1003   -1.1781 N.ar      1 <0>        -0.6072
     17 N4         -5.4120   -1.3087   -2.2128 N.pl3     1 <0>        -0.3543
     18 C13        -6.2934   -1.2979   -3.2532 C.cat     1 <0>         0.4274
     19 N5         -7.4879   -1.5980   -2.8307 N.pl3     1 <0>        -0.4843
     20 C14        -7.4578   -1.8215   -1.4962 C.ar      1 <0>         0.0854
     21 C15        -6.1243   -1.6457   -1.0771 C.ar      1 <0>         0.0284
     22 C16        -5.8113   -1.8233    0.2598 C.ar      1 <0>         0.1919
     23 N6         -6.7515   -2.1553    1.1232 N.ar      1 <0>        -0.4396
     24 C17        -8.0113   -2.3311    0.7629 C.ar      1 <0>         0.1350
     25 C18        -8.4120   -2.1686   -0.5337 C.ar      1 <0>        -0.1279
     26 N7         -1.6586   -0.1376   -4.7862 N.pl3     1 <0>        -0.5846
     27 C19        -2.4340   -0.2894   -6.0267 C.3       1 <0>         0.1239
     28 C20        -2.3604    1.0252   -6.8107 C.3       1 <0>         0.0375
     29 N8         -0.9529    1.4006   -7.0000 N.3       1 <0>        -0.5427
     30 C21        -0.2918    1.6557   -5.7132 C.3       1 <0>         0.0376
     31 C22        -0.2826    0.3727   -4.8836 C.3       1 <0>         0.1219
     32 C23        -0.8331    2.5612   -7.8926 C.3       1 <0>         0.0231
     33 H2          1.4628    1.1052   -0.0009 H         1 <0>         0.0791
     34 H3         -0.1003    1.3947   -0.8017 H         1 <0>         0.0635
     35 H4         -0.0214    1.2511    0.9707 H         1 <0>         0.0676
     36 H5         -0.7145   -0.8918    2.4538 H         1 <0>         0.1193
     37 H6          0.4030   -2.0275    4.3312 H         1 <0>         0.1273
     38 H7          2.6008   -3.0864    3.9973 H         1 <0>         0.1276
     39 H8          3.6807   -3.0105    1.7857 H         1 <0>         0.1287
     40 H9          2.5595   -1.8821   -0.0938 H         1 <0>         0.1259
     41 H10        -1.6880   -1.1386    0.7980 H         1 <0>         0.4129
     42 H11        -0.3583   -0.3011   -2.4707 H         1 <0>         0.1574
     43 H12        -6.0380   -1.0728   -4.2782 H         1 <0>         0.2784
     44 H13        -4.7939   -1.6899    0.5968 H         1 <0>         0.1949
     45 H14        -8.7413   -2.6030    1.5109 H         1 <0>         0.1909
     46 H15        -9.4447   -2.3175   -0.8125 H         1 <0>         0.1697
     47 H16        -2.0125   -1.0969   -6.6255 H         1 <0>         0.0824
     48 H17        -3.4727   -0.5135   -5.7842 H         1 <0>         0.0965
     49 H18        -2.8363    0.8960   -7.7828 H         1 <0>         0.0930
     50 H19        -2.8745    1.8093   -6.2550 H         1 <0>         0.0394
     51 H20         0.7326    1.9838   -5.8893 H         1 <0>         0.0976
     52 H21        -0.8347    2.4311   -5.1727 H         1 <0>         0.0410
     53 H22         0.1003    0.5862   -3.8857 H         1 <0>         0.0927
     54 H23         0.3497   -0.3699   -5.3704 H         1 <0>         0.0895
     55 H24        -1.3658    3.4084   -7.4605 H         1 <0>         0.0286
     56 H25         0.2191    2.8180   -8.0154 H         1 <0>         0.0751
     57 H26        -1.2637    2.3185   -8.8640 H         1 <0>         0.0748
     58 H27        -8.2798   -1.6529   -3.3881 H         1 <0>         0.4710
@<TRIPOS>BOND
     1    1    2 1
     2    1   33 1
     3    1   34 1
     4    1   35 1
     5    2    3 1
     6    2    4 1
     7    2   10 1
     8    4    9 ar
     9    4    5 ar
    10    5    6 ar
    11    5   36 1
    12    6    7 ar
    13    6   37 1
    14    7    8 ar
    15    7   38 1
    16    8    9 ar
    17    8   39 1
    18    9   40 1
    19   10   11 1
    20   10   41 1
    21   11   16 ar
    22   11   12 ar
    23   12   13 ar
    24   12   42 1
    25   13   14 ar
    26   13   26 1
    27   14   15 ar
    28   15   16 ar
    29   15   17 1
    30   17   21 1
    31   17   18 1
    32   18   19 2
    33   18   43 1
    34   19   20 1
    35   19   58 1
    36   20   25 ar
    37   20   21 ar
    38   21   22 ar
    39   22   23 ar
    40   22   44 1
    41   23   24 ar
    42   24   25 ar
    43   24   45 1
    44   25   46 1
    45   26   31 1
    46   26   27 1
    47   27   28 1
    48   27   47 1
    49   27   48 1
    50   28   29 1
    51   28   49 1
    52   28   50 1
    53   29   30 1
    54   29   32 1
    55   30   31 1
    56   30   51 1
    57   30   52 1
    58   31   53 1
    59   31   54 1
    60   32   55 1
    61   32   56 1
    62   32   57 1
@<TRIPOS>MOLECULE
CHEMBL1081975
   53    57     0     0     0
SMALL
USER_CHARGES

@<TRIPOS>ATOM
      1 C1         -3.5045   -4.0432   -2.1029 C.3       1 <0>         0.0242
      2 O1         -2.3182   -3.6421   -1.4145 O.3       1 <0>        -0.2975
      3 C2         -2.3730   -2.4751   -0.7185 C.ar      1 <0>         0.1749
      4 C3         -3.5456   -1.7364   -0.6949 C.ar      1 <0>        -0.2379
      5 C4         -3.6017   -0.5449    0.0156 C.ar      1 <0>         0.2415
      6 C5         -2.4837   -0.0927    0.7034 C.ar      1 <0>        -0.2609
      7 C6         -1.3104   -0.8302    0.6808 C.ar      1 <0>         0.1740
      8 C7         -1.2550   -2.0257   -0.0259 C.ar      1 <0>         0.0140
      9 O2         -0.1043   -2.7535   -0.0443 O.3       1 <0>        -0.3097
     10 C8          0.8292   -2.4649   -1.0871 C.3       1 <0>         0.0340
     11 O3         -0.2151   -0.3866    1.3538 O.3       1 <0>        -0.2973
     12 C9         -0.3450    0.8473    2.0627 C.3       1 <0>         0.0230
     13 N1         -4.7863    0.2011    0.0381 N.pl3     1 <0>        -0.6148
     14 C10        -6.0038   -0.4364   -0.0577 C.2       1 <0>         0.4938
     15 N2         -6.1729   -1.7340   -0.0632 N.2       1 <0>        -0.5128
     16 C11        -7.5037   -2.0001   -0.1707 C.ar      1 <0>         0.0579
     17 C12        -8.2488   -3.1800   -0.2247 C.ar      1 <0>        -0.0703
     18 C13        -9.6216   -3.1237   -0.3382 C.ar      1 <0>        -0.1053
     19 C14       -10.2726   -1.9041   -0.4000 C.ar      1 <0>        -0.0926
     20 C15        -9.5474   -0.7170   -0.3477 C.ar      1 <0>        -0.0108
     21 C16        -8.1566   -0.7618   -0.2324 C.ar      1 <0>         0.0119
     22 O4         -7.1933    0.1836   -0.1535 O.3       1 <0>        -0.2206
     23 C17       -10.2482    0.5881   -0.4142 C.ar      1 <0>        -0.0479
     24 C18        -9.9630    1.5821    0.5362 C.ar      1 <0>        -0.0821
     25 C19       -10.5901    2.7857    0.4974 C.ar      1 <0>        -0.0885
     26 C20       -11.5415    3.0531   -0.5044 C.ar      1 <0>         0.1298
     27 C21       -11.8357    2.0557   -1.4679 C.ar      1 <0>        -0.1022
     28 C22       -11.1738    0.8203   -1.4149 C.ar      1 <0>        -0.0767
     29 C23       -12.7889    2.3313   -2.4671 C.ar      1 <0>        -0.0549
     30 C24       -13.3916    3.5572   -2.4625 C.ar      1 <0>        -0.1747
     31 C25       -13.0563    4.4924   -1.4863 C.ar      1 <0>         0.1346
     32 N3        -12.1676    4.2327   -0.5580 N.ar      1 <0>        -0.4752
     33 H1         -3.3250   -4.9880   -2.6159 H         1 <0>         0.1036
     34 H2         -4.3161   -4.1675   -1.3860 H         1 <0>         0.0646
     35 H3         -3.7773   -3.2800   -2.8318 H         1 <0>         0.0545
     36 H4         -4.4157   -2.0875   -1.2297 H         1 <0>         0.1561
     37 H5         -2.5282    0.8342    1.2558 H         1 <0>         0.1409
     38 H6          1.6992   -3.1137   -0.9857 H         1 <0>         0.0927
     39 H7          0.3579   -2.6377   -2.0547 H         1 <0>         0.0440
     40 H8          1.1425   -1.4233   -1.0163 H         1 <0>         0.0439
     41 H9          0.5984    1.0851    2.5540 H         1 <0>         0.1049
     42 H10        -0.6011    1.6430    1.3632 H         1 <0>         0.0577
     43 H11        -1.1315    0.7549    2.8117 H         1 <0>         0.0590
     44 H12        -4.7497    1.1669    0.1212 H         1 <0>         0.4301
     45 H13        -7.7495   -4.1365   -0.1779 H         1 <0>         0.1382
     46 H14       -10.1936   -4.0389   -0.3795 H         1 <0>         0.1417
     47 H15       -11.3484   -1.8731   -0.4895 H         1 <0>         0.1423
     48 H16        -9.2346    1.3862    1.3092 H         1 <0>         0.1282
     49 H17       -10.3589    3.5385    1.2365 H         1 <0>         0.1388
     50 H18       -11.3879    0.0558   -2.1470 H         1 <0>         0.1358
     51 H19       -13.0363    1.5941   -3.2166 H         1 <0>         0.1408
     52 H20       -14.1269    3.8011   -3.2150 H         1 <0>         0.1403
     53 H21       -13.5404    5.4577   -1.4950 H         1 <0>         0.1614
@<TRIPOS>BOND
     1    1    2 1
     2    1   33 1
     3    1   34 1
     4    1   35 1
     5    2    3 1
     6    3    8 ar
     7    3    4 ar
     8    4    5 ar
     9    4   36 1
    10    5    6 ar
    11    5   13 1
    12    6    7 ar
    13    6   37 1
    14    7    8 ar
    15    7   11 1
    16    8    9 1
    17    9   10 1
    18   10   38 1
    19   10   39 1
    20   10   40 1
    21   11   12 1
    22   12   41 1
    23   12   42 1
    24   12   43 1
    25   13   14 1
    26   13   44 1
    27   14   22 1
    28   14   15 2
    29   15   16 1
    30   16   21 ar
    31   16   17 ar
    32   17   18 ar
    33   17   45 1
    34   18   19 ar
    35   18   46 1
    36   19   20 ar
    37   19   47 1
    38   20   21 ar
    39   20   23 1
    40   21   22 1
    41   23   28 ar
    42   23   24 ar
    43   24   25 ar
    44   24   48 1
    45   25   26 ar
    46   25   49 1
    47   26   32 ar
    48   26   27 ar
    49   27   28 ar
    50   27   29 ar
    51   28   50 1
    52   29   30 ar
    53   29   51 1
    54   30   31 ar
    55   30   52 1
    56   31   32 ar
    57   31   53 1
@<TRIPOS>MOLECULE
CHEMBL1081977
   55    58     0     0     0
SMALL
USER_CHARGES

@<TRIPOS>ATOM
      1 C1         -3.5048   -4.0435   -2.1017 C.3       1 <0>         0.0238
      2 O1         -2.3185   -3.6424   -1.4134 O.3       1 <0>        -0.3002
      3 C2         -2.3732   -2.4753   -0.7174 C.ar      1 <0>         0.1749
      4 C3         -3.5458   -1.7366   -0.6939 C.ar      1 <0>        -0.2386
      5 C4         -3.6017   -0.5449    0.0162 C.ar      1 <0>         0.2524
      6 C5         -2.4836   -0.0924    0.7035 C.ar      1 <0>        -0.2646
      7 C6         -1.3102   -0.8300    0.6809 C.ar      1 <0>         0.1727
      8 C7         -1.2552   -2.0259   -0.0249 C.ar      1 <0>         0.0067
      9 O2         -0.1046   -2.7540   -0.0430 O.3       1 <0>        -0.3100
     10 C8          0.8290   -2.4660   -1.0858 C.3       1 <0>         0.0340
     11 O3         -0.2148   -0.3861    1.3535 O.3       1 <0>        -0.2999
     12 C9         -0.3445    0.8481    2.0620 C.3       1 <0>         0.0233
     13 N1         -4.7863    0.2011    0.0388 N.pl3     1 <0>        -0.6181
     14 C10        -6.0038   -0.4364   -0.0565 C.2       1 <0>         0.4802
     15 N2         -6.1729   -1.7341   -0.0615 N.2       1 <0>        -0.5171
     16 C11        -7.5039   -2.0002   -0.1678 C.ar      1 <0>         0.0520
     17 C12        -8.2490   -3.1804   -0.2204 C.ar      1 <0>        -0.0988
     18 C13        -9.6218   -3.1241   -0.3322 C.ar      1 <0>        -0.1017
     19 C14       -10.2730   -1.9044   -0.3933 C.ar      1 <0>        -0.1147
     20 C15        -9.5477   -0.7174   -0.3424 C.ar      1 <0>         0.0456
     21 C16        -8.1568   -0.7621   -0.2292 C.ar      1 <0>         0.0044
     22 O4         -7.1933    0.1835   -0.1522 O.3       1 <0>        -0.2124
     23 C17       -10.2486    0.5878   -0.4086 C.ar      1 <0>        -0.1888
     24 C18        -9.9687    1.5790    0.5312 C.ar      1 <0>        -0.0499
     25 C19       -10.6211    2.7918    0.4674 C.ar      1 <0>        -0.1875
     26 C20       -11.5574    3.0268   -0.5328 C.ar      1 <0>         0.2968
     27 C21       -11.8380    2.0400   -1.4709 C.ar      1 <0>        -0.2599
     28 C22       -11.1841    0.8276   -1.4141 C.ar      1 <0>        -0.0392
     29 N3        -12.2171    4.2555   -0.5952 N.2       1 <0>        -1.0959
     30 S1        -13.3327    4.5368   -1.7863 S.o2      1 <0>         2.5261
     31 O5        -12.5908    4.4865   -2.9971 O.2       1 <0>        -1.0292
     32 O6        -14.3741    3.6031   -1.5355 O.2       1 <0>        -1.0286
     33 C23       -13.9216    6.2257   -1.4839 C.3       1 <0>        -0.6373
     34 H1         -3.3253   -4.9883   -2.6148 H         1 <0>         0.1014
     35 H2         -4.3163   -4.1679   -1.3848 H         1 <0>         0.0662
     36 H3         -3.7776   -3.2804   -2.8306 H         1 <0>         0.0554
     37 H4         -4.4160   -2.0880   -1.2283 H         1 <0>         0.1580
     38 H5         -2.5279    0.8347    1.2557 H         1 <0>         0.1403
     39 H6          1.6989   -3.1149   -0.9841 H         1 <0>         0.0896
     40 H7          0.3578   -2.6390   -2.0534 H         1 <0>         0.0432
     41 H8          1.1426   -1.4245   -1.0154 H         1 <0>         0.0426
     42 H9         -0.6008    1.6435    1.3623 H         1 <0>         0.0577
     43 H10        -1.1308    0.7560    2.8113 H         1 <0>         0.0591
     44 H11         0.5991    1.0861    2.5530 H         1 <0>         0.1023
     45 H12        -4.7497    1.1669    0.1215 H         1 <0>         0.4295
     46 H13        -7.7496   -4.1369   -0.1737 H         1 <0>         0.1282
     47 H14       -10.1938   -4.0393   -0.3729 H         1 <0>         0.1322
     48 H15       -11.3489   -1.8734   -0.4812 H         1 <0>         0.1387
     49 H16        -9.2416    1.3967    1.3087 H         1 <0>         0.1006
     50 H17       -10.4049    3.5597    1.1954 H         1 <0>         0.1127
     51 H18       -12.5660    2.2246   -2.2470 H         1 <0>         0.1045
     52 H19       -11.3992    0.0629   -2.1458 H         1 <0>         0.1048
     53 H20       -13.0830    6.9193   -1.5450 H         1 <0>         0.1152
     54 H21       -14.6672    6.4902   -2.2338 H         1 <0>         0.1018
     55 H22       -14.3685    6.2824   -0.4914 H         1 <0>         0.1155
@<TRIPOS>BOND
     1    1    2 1
     2    1   34 1
     3    1   35 1
     4    1   36 1
     5    2    3 1
     6    3    8 ar
     7    3    4 ar
     8    4    5 ar
     9    4   37 1
    10    5    6 ar
    11    5   13 1
    12    6    7 ar
    13    6   38 1
    14    7    8 ar
    15    7   11 1
    16    8    9 1
    17    9   10 1
    18   10   39 1
    19   10   40 1
    20   10   41 1
    21   11   12 1
    22   12   42 1
    23   12   43 1
    24   12   44 1
    25   13   14 1
    26   13   45 1
    27   14   22 1
    28   14   15 2
    29   15   16 1
    30   16   21 ar
    31   16   17 ar
    32   17   18 ar
    33   17   46 1
    34   18   19 ar
    35   18   47 1
    36   19   20 ar
    37   19   48 1
    38   20   21 ar
    39   20   23 1
    40   21   22 1
    41   23   28 ar
    42   23   24 ar
    43   24   25 ar
    44   24   49 1
    45   25   26 ar
    46   25   50 1
    47   26   27 ar
    48   26   29 1
    49   27   28 ar
    50   27   51 1
    51   28   52 1
    52   29   30 1
    53   30   31 2
    54   30   32 2
    55   30   33 1
    56   33   53 1
    57   33   54 1
    58   33   55 1
@<TRIPOS>MOLECULE
CHEMBL1089833
   66    70     0     0     0
SMALL
USER_CHARGES

@<TRIPOS>ATOM
      1 C1         -0.0173    1.4248    0.0099 C.3       1 <0>         0.0211
      2 O1          0.0021   -0.0041    0.0020 O.3       1 <0>        -0.2985
      3 C2          0.6062   -0.6075   -1.0565 C.ar      1 <0>         0.1500
      4 C3          1.1714    0.1597   -2.0596 C.ar      1 <0>        -0.2105
      5 C4          1.7913   -0.4596   -3.1447 C.ar      1 <0>         0.0214
      6 C5          1.8402   -1.8516   -3.2165 C.ar      1 <0>        -0.1886
      7 C6          1.2739   -2.6156   -2.2115 C.ar      1 <0>         0.1442
      8 C7          0.6606   -1.9960   -1.1271 C.ar      1 <0>         0.0479
      9 O2          0.1091   -2.7486   -0.1375 O.3       1 <0>        -0.3116
     10 C8         -1.2624   -3.1191   -0.2921 C.3       1 <0>         0.0346
     11 O3          1.3210   -3.9730   -2.2813 O.3       1 <0>        -0.2966
     12 C9          1.9705   -4.5419   -3.4199 C.3       1 <0>         0.0090
     13 C10         2.3966    0.3602   -4.2200 C.ar      1 <0>         0.1432
     14 C11         2.4430    1.7607   -4.0897 C.ar      1 <0>         0.0937
     15 N1          2.9753    2.5006   -5.0323 N.ar      1 <0>        -0.4170
     16 C12         3.4806    1.9217   -6.1296 C.ar      1 <0>         0.0781
     17 C13         4.0563    2.6947   -7.1520 C.ar      1 <0>        -0.0802
     18 C14         4.5662    2.0913   -8.2618 C.ar      1 <0>        -0.0933
     19 C15         4.5299    0.7092   -8.4093 C.ar      1 <0>        -0.0849
     20 C16         3.9725   -0.0903   -7.4276 C.ar      1 <0>        -0.0146
     21 C17         3.4356    0.5119   -6.2633 C.ar      1 <0>         0.0989
     22 N2          2.8951   -0.2291   -5.2943 N.ar      1 <0>        -0.4082
     23 C18         3.9371   -1.5619   -7.5925 C.ar      1 <0>        -0.0396
     24 C19         4.3876   -2.3925   -6.5666 C.ar      1 <0>        -0.0771
     25 C20         4.3517   -3.7626   -6.7259 C.ar      1 <0>        -0.1216
     26 C21         3.8701   -4.3128   -7.9004 C.ar      1 <0>        -0.0771
     27 C22         3.4223   -3.4942   -8.9218 C.ar      1 <0>        -0.0962
     28 C23         3.4478   -2.1228   -8.7720 C.ar      1 <0>        -0.1008
     29 C24         3.8336   -5.8100   -8.0679 C.3       1 <0>         0.0978
     30 N3          2.5454   -6.3255   -7.5854 N.3       1 <0>        -0.5499
     31 C25         2.3914   -6.0909   -6.1479 C.3       1 <0>         0.0498
     32 C26         0.9165   -6.2227   -5.7537 C.3       1 <0>        -0.6117
     33 S1          0.3732   -7.9222   -6.1063 S.o2      1 <0>         2.4074
     34 O4         -1.0463   -7.9634   -6.0565 O.2       1 <0>        -0.9376
     35 O5          1.1221   -8.8150   -5.2931 O.2       1 <0>        -0.9356
     36 C27         0.8987   -8.1268   -7.8355 C.3       1 <0>        -0.5961
     37 C28         2.3760   -7.7351   -7.9455 C.3       1 <0>         0.0640
     38 H1          1.0053    1.8021    0.0021 H         1 <0>         0.0600
     39 H2         -0.5445    1.7859   -0.8732 H         1 <0>         0.0588
     40 H3         -0.5275    1.7763    0.9067 H         1 <0>         0.1061
     41 H4          1.1323    1.2375   -2.0026 H         1 <0>         0.1417
     42 H5          2.3195   -2.3328   -4.0562 H         1 <0>         0.1486
     43 H6         -1.8767   -2.2209   -0.3539 H         1 <0>         0.0461
     44 H7         -1.3803   -3.7034   -1.2047 H         1 <0>         0.0462
     45 H8         -1.5763   -3.7158    0.5644 H         1 <0>         0.0953
     46 H9          1.4607   -4.2195   -4.3278 H         1 <0>         0.0659
     47 H10         3.0086   -4.2110   -3.4491 H         1 <0>         0.0628
     48 H11         1.9376   -5.6293   -3.3514 H         1 <0>         0.1057
     49 H12         2.0364    2.2300   -3.2061 H         1 <0>         0.1752
     50 H13         4.0942    3.7700   -7.0580 H         1 <0>         0.1429
     51 H14         5.0060    2.6969   -9.0404 H         1 <0>         0.1414
     52 H15         4.9404    0.2554   -9.2993 H         1 <0>         0.1403
     53 H16         4.7641   -1.9641   -5.6494 H         1 <0>         0.1217
     54 H17         4.7006   -4.4068   -5.9324 H         1 <0>         0.1222
     55 H18         3.0481   -3.9296   -9.8366 H         1 <0>         0.1270
     56 H19         3.0938   -1.4848   -9.5684 H         1 <0>         0.1248
     57 H20         3.9534   -6.0607   -9.1219 H         1 <0>         0.0938
     58 H21         4.6432   -6.2598   -7.4931 H         1 <0>         0.0542
     59 H22         2.9805   -6.8235   -5.5962 H         1 <0>         0.0624
     60 H23         2.7430   -5.0881   -5.9049 H         1 <0>         0.1068
     61 H24         0.8019   -6.0150   -4.6899 H         1 <0>         0.1421
     62 H25         0.3184   -5.5195   -6.3333 H         1 <0>         0.1465
     63 H26         0.7724   -9.1670   -8.1359 H         1 <0>         0.1403
     64 H27         0.3001   -7.4819   -8.4788 H         1 <0>         0.1435
     65 H28         2.7167   -7.8909   -8.9691 H         1 <0>         0.1022
     66 H29         2.9662   -8.3548   -7.2703 H         1 <0>         0.0620
@<TRIPOS>BOND
     1    1    2 1
     2    1   38 1
     3    1   39 1
     4    1   40 1
     5    2    3 1
     6    3    8 ar
     7    3    4 ar
     8    4    5 ar
     9    4   41 1
    10    5    6 ar
    11    5   13 1
    12    6    7 ar
    13    6   42 1
    14    7    8 ar
    15    7   11 1
    16    8    9 1
    17    9   10 1
    18   10   43 1
    19   10   44 1
    20   10   45 1
    21   11   12 1
    22   12   46 1
    23   12   47 1
    24   12   48 1
    25   13   22 ar
    26   13   14 ar
    27   14   15 ar
    28   14   49 1
    29   15   16 ar
    30   16   21 ar
    31   16   17 ar
    32   17   18 ar
    33   17   50 1
    34   18   19 ar
    35   18   51 1
    36   19   20 ar
    37   19   52 1
    38   20   21 ar
    39   20   23 1
    40   21   22 ar
    41   23   28 ar
    42   23   24 ar
    43   24   25 ar
    44   24   53 1
    45   25   26 ar
    46   25   54 1
    47   26   27 ar
    48   26   29 1
    49   27   28 ar
    50   27   55 1
    51   28   56 1
    52   29   30 1
    53   29   57 1
    54   29   58 1
    55   30   37 1
    56   30   31 1
    57   31   32 1
    58   31   59 1
    59   31   60 1
    60   32   33 1
    61   32   61 1
    62   32   62 1
    63   33   34 2
    64   33   35 2
    65   33   36 1
    66   36   37 1
    67   36   63 1
    68   36   64 1
    69   37   65 1
    70   37   66 1
@<TRIPOS>MOLECULE
CHEMBL1089833__1
   67    71     0     0     0
SMALL
USER_CHARGES

@<TRIPOS>ATOM
      1 C1         -0.0173    1.4248    0.0099 C.3       1 <0>         0.0194
      2 O1          0.0021   -0.0041    0.0020 O.3       1 <0>        -0.2956
      3 C2          0.6062   -0.6075   -1.0565 C.ar      1 <0>         0.1546
      4 C3          1.1714    0.1597   -2.0596 C.ar      1 <0>        -0.2048
      5 C4          1.7913   -0.4596   -3.1447 C.ar      1 <0>         0.0188
      6 C5          1.8402   -1.8516   -3.2165 C.ar      1 <0>        -0.1913
      7 C6          1.2739   -2.6156   -2.2115 C.ar      1 <0>         0.1372
      8 C7          0.6606   -1.9960   -1.1271 C.ar      1 <0>         0.0545
      9 O2          0.1091   -2.7486   -0.1375 O.3       1 <0>        -0.3109
     10 C8         -1.2624   -3.1191   -0.2921 C.3       1 <0>         0.0350
     11 O3          1.3210   -3.9730   -2.2813 O.3       1 <0>        -0.2928
     12 C9          1.9705   -4.5419   -3.4199 C.3       1 <0>         0.0040
     13 C10         2.3966    0.3602   -4.2200 C.ar      1 <0>         0.1525
     14 C11         2.4430    1.7607   -4.0897 C.ar      1 <0>         0.0953
     15 N1          2.9753    2.5006   -5.0323 N.ar      1 <0>        -0.4091
     16 C12         3.4806    1.9217   -6.1296 C.ar      1 <0>         0.0769
     17 C13         4.0563    2.6947   -7.1520 C.ar      1 <0>        -0.0618
     18 C14         4.5662    2.0913   -8.2618 C.ar      1 <0>        -0.1002
     19 C15         4.5299    0.7092   -8.4093 C.ar      1 <0>        -0.0652
     20 C16         3.9725   -0.0903   -7.4276 C.ar      1 <0>        -0.0489
     21 C17         3.4356    0.5119   -6.2633 C.ar      1 <0>         0.1040
     22 N2          2.8951   -0.2291   -5.2943 N.ar      1 <0>        -0.4227
     23 C18         3.9371   -1.5619   -7.5925 C.ar      1 <0>         0.0112
     24 C19         4.3876   -2.3925   -6.5666 C.ar      1 <0>        -0.0768
     25 C20         4.3517   -3.7626   -6.7259 C.ar      1 <0>        -0.1030
     26 C21         3.8701   -4.3128   -7.9004 C.ar      1 <0>        -0.1672
     27 C22         3.4223   -3.4942   -8.9218 C.ar      1 <0>        -0.0884
     28 C23         3.4478   -2.1228   -8.7720 C.ar      1 <0>        -0.1013
     29 C24         3.8336   -5.8100   -8.0679 C.3       1 <0>         0.0426
     30 N3          2.5454   -6.3255   -7.5854 N.4       1 <0>        -0.3932
     31 C25         2.4272   -6.0563   -6.1509 C.3       1 <0>        -0.0212
     32 C26         0.9764   -6.2572   -5.7001 C.3       1 <0>        -0.6669
     33 S1          0.5265   -7.9998   -5.9648 S.o2      1 <0>         2.4140
     34 O4         -0.8867   -8.1212   -5.8786 O.2       1 <0>        -0.8901
     35 O5          1.3447   -8.8105   -5.1326 O.2       1 <0>        -0.8955
     36 C27         1.0255   -8.2486   -7.6964 C.3       1 <0>        -0.6458
     37 C28         2.4693   -7.7617   -7.8605 C.3       1 <0>        -0.0012
     38 H1          1.0053    1.8021    0.0021 H         1 <0>         0.0621
     39 H2         -0.5445    1.7859   -0.8732 H         1 <0>         0.0604
     40 H3         -0.5275    1.7763    0.9067 H         1 <0>         0.1103
     41 H4          1.1323    1.2375   -2.0026 H         1 <0>         0.1447
     42 H5          2.3195   -2.3328   -4.0562 H         1 <0>         0.1435
     43 H6         -1.8767   -2.2209   -0.3539 H         1 <0>         0.0486
     44 H7         -1.3803   -3.7034   -1.2047 H         1 <0>         0.0443
     45 H8         -1.5763   -3.7158    0.5644 H         1 <0>         0.0985
     46 H9          1.4607   -4.2195   -4.3278 H         1 <0>         0.0575
     47 H10         3.0086   -4.2110   -3.4491 H         1 <0>         0.0661
     48 H11         1.9376   -5.6293   -3.3514 H         1 <0>         0.1020
     49 H12         2.0364    2.2300   -3.2061 H         1 <0>         0.1785
     50 H13         4.0942    3.7700   -7.0580 H         1 <0>         0.1485
     51 H14         5.0060    2.6969   -9.0404 H         1 <0>         0.1468
     52 H15         4.9404    0.2554   -9.2993 H         1 <0>         0.1421
     53 H16         4.7641   -1.9641   -5.6494 H         1 <0>         0.1359
     54 H17         4.7006   -4.4068   -5.9324 H         1 <0>         0.1352
     55 H18         3.0481   -3.9296   -9.8366 H         1 <0>         0.1356
     56 H19         3.0938   -1.4848   -9.5684 H         1 <0>         0.1384
     57 H20         3.9534   -6.0607   -9.1219 H         1 <0>         0.1470
     58 H21         4.6432   -6.2598   -7.4931 H         1 <0>         0.1448
     59 H22         3.0751   -6.7381   -5.6000 H         1 <0>         0.1566
     60 H23         2.7300   -5.0288   -5.9492 H         1 <0>         0.1569
     61 H24         0.8842   -6.0117   -4.6421 H         1 <0>         0.1854
     62 H25         0.3185   -5.6159   -6.2866 H         1 <0>         0.1629
     63 H26         0.9655   -9.3079   -7.9463 H         1 <0>         0.1842
     64 H27         0.3693   -7.6767   -8.3525 H         1 <0>         0.1583
     65 H28         2.8022   -7.9531   -8.8806 H         1 <0>         0.1590
     66 H29         3.1136   -8.2984   -7.1641 H         1 <0>         0.1535
     67 H30         1.7974   -5.8551   -8.0725 H         1 <0>         0.4263
@<TRIPOS>BOND
     1    1    2 1
     2    1   38 1
     3    1   39 1
     4    1   40 1
     5    2    3 1
     6    3    8 ar
     7    3    4 ar
     8    4    5 ar
     9    4   41 1
    10    5    6 ar
    11    5   13 1
    12    6    7 ar
    13    6   42 1
    14    7    8 ar
    15    7   11 1
    16    8    9 1
    17    9   10 1
    18   10   43 1
    19   10   44 1
    20   10   45 1
    21   11   12 1
    22   12   46 1
    23   12   47 1
    24   12   48 1
    25   13   22 ar
    26   13   14 ar
    27   14   15 ar
    28   14   49 1
    29   15   16 ar
    30   16   21 ar
    31   16   17 ar
    32   17   18 ar
    33   17   50 1
    34   18   19 ar
    35   18   51 1
    36   19   20 ar
    37   19   52 1
    38   20   21 ar
    39   20   23 1
    40   21   22 ar
    41   23   28 ar
    42   23   24 ar
    43   24   25 ar
    44   24   53 1
    45   25   26 ar
    46   25   54 1
    47   26   27 ar
    48   26   29 1
    49   27   28 ar
    50   27   55 1
    51   28   56 1
    52   29   30 1
    53   29   57 1
    54   29   58 1
    55   30   37 1
    56   30   31 1
    57   30   67 1
    58   31   32 1
    59   31   59 1
    60   31   60 1
    61   32   33 1
    62   32   61 1
    63   32   62 1
    64   33   34 2
    65   33   35 2
    66   33   36 1
    67   36   37 1
    68   36   63 1
    69   36   64 1
    70   37   65 1
    71   37   66 1
@<TRIPOS>MOLECULE
CHEMBL1093119
   70    75     0     0     0
SMALL
USER_CHARGES

@<TRIPOS>ATOM
      1 C1         -0.6657    1.3978    0.1048 C.3       1 <0>        -0.1362
      2 C2         -0.3152   -0.0671    0.0553 C.ar      1 <0>        -0.0316
      3 C3         -0.4211   -0.7609   -1.1296 C.ar      1 <0>        -0.0996
      4 C4         -0.0967   -2.1170   -1.1757 C.ar      1 <0>        -0.0269
      5 C5          0.3349   -2.7716   -0.0212 C.ar      1 <0>        -0.0836
      6 C6          0.4408   -2.0794    1.1642 C.ar      1 <0>        -0.0875
      7 C7          0.1225   -0.7199    1.2096 C.ar      1 <0>        -0.1160
      8 C8          0.2427    0.0255    2.4802 C.2       1 <0>         0.5667
      9 O1         -0.6796    0.7148    2.8700 O.2       1 <0>        -0.5237
     10 N1          1.3749   -0.0588    3.2065 N.am      1 <0>        -0.6104
     11 C9          2.5514   -0.7793    2.6945 C.3       1 <0>         0.0674
     12 C10         3.7741    0.1358    2.8269 C.3       1 <0>         0.0469
     13 O2          3.8591    0.6163    4.1707 O.3       1 <0>        -0.3768
     14 C11         2.7465    1.4166    4.5775 C.3       1 <0>         0.0474
     15 C12         1.4731    0.5719    4.5323 C.3       1 <0>         0.0755
     16 C13        -0.2109   -2.8630   -2.4513 C.ar      1 <0>         0.1466
     17 C14        -0.5389   -2.1773   -3.6350 C.ar      1 <0>         0.0924
     18 N2         -0.6434   -2.8224   -4.7722 N.ar      1 <0>        -0.4147
     19 C15        -0.4367   -4.1451   -4.8099 C.ar      1 <0>         0.0769
     20 C16        -0.5426   -4.8573   -6.0165 C.ar      1 <0>        -0.0713
     21 C17        -0.3294   -6.2024   -6.0383 C.ar      1 <0>        -0.0966
     22 C18        -0.0049   -6.8980   -4.8786 C.ar      1 <0>        -0.0733
     23 C19         0.1100   -6.2375   -3.6689 C.ar      1 <0>        -0.0252
     24 C20        -0.1062   -4.8380   -3.6183 C.ar      1 <0>         0.1041
     25 N3          0.0016   -4.1683   -2.4704 N.ar      1 <0>        -0.4145
     26 C21         0.4555   -6.9858   -2.4382 C.ar      1 <0>         0.0192
     27 C22         1.4815   -6.5332   -1.6092 C.ar      1 <0>        -0.1247
     28 C23         1.7999   -7.2348   -0.4616 C.ar      1 <0>         0.1323
     29 C24         1.1019   -8.3858   -0.1346 C.ar      1 <0>        -0.1470
     30 C25         0.0819   -8.8395   -0.9548 C.ar      1 <0>         0.1521
     31 C26        -0.2479   -8.1419   -2.1016 C.ar      1 <0>        -0.1497
     32 F1         -0.5951   -9.9627   -0.6306 F         1 <0>        -0.1224
     33 C27         1.4538   -9.1474    1.1173 C.3       1 <0>         0.0949
     34 N4          0.6560   -8.6382    2.2408 N.3       1 <0>        -0.5300
     35 C28         1.0274   -7.2533    2.5657 C.3       1 <0>         0.0161
     36 C29         0.1332   -6.7434    3.6990 C.3       1 <0>         0.0647
     37 O3          0.2563   -7.6156    4.8257 O.3       1 <0>        -0.3837
     38 C30        -0.0981   -8.9724    4.5450 C.3       1 <0>         0.0638
     39 C31         0.7937   -9.5049    3.4202 C.3       1 <0>         0.0179
     40 F2          2.7936   -6.7974    0.3424 F         1 <0>        -0.1276
     41 H1          0.2401    1.9923   -0.0135 H         1 <0>         0.0728
     42 H2         -1.3620    1.6322   -0.7004 H         1 <0>         0.0734
     43 H3         -1.1289    1.6283    1.0642 H         1 <0>         0.0946
     44 H4         -0.7557   -0.2552   -2.0233 H         1 <0>         0.1377
     45 H5          0.5855   -3.8215   -0.0576 H         1 <0>         0.1402
     46 H6          0.7745   -2.5862    2.0576 H         1 <0>         0.1335
     47 H7          2.7078   -1.6875    3.2766 H         1 <0>         0.0824
     48 H8          2.3971   -1.0363    1.6465 H         1 <0>         0.0994
     49 H9          4.6765   -0.4248    2.5830 H         1 <0>         0.1094
     50 H10         3.6731    0.9796    2.1443 H         1 <0>         0.0573
     51 H11         2.9097    1.7775    5.5930 H         1 <0>         0.1102
     52 H12         2.6417    2.2650    3.9013 H         1 <0>         0.0572
     53 H13         0.6050    1.2092    4.7008 H         1 <0>         0.1049
     54 H14         1.5190   -0.1979    5.3026 H         1 <0>         0.0802
     55 H15        -0.7064   -1.1107   -3.6071 H         1 <0>         0.1781
     56 H16        -0.7940   -4.3369   -6.9289 H         1 <0>         0.1448
     57 H17        -0.4143   -6.7381   -6.9723 H         1 <0>         0.1440
     58 H18         0.1588   -7.9646   -4.9231 H         1 <0>         0.1432
     59 H19         2.0267   -5.6363   -1.8636 H         1 <0>         0.1423
     60 H20        -1.0462   -8.4939   -2.7381 H         1 <0>         0.1459
     61 H21         1.2404  -10.2062    0.9706 H         1 <0>         0.0951
     62 H22         2.5137   -9.0172    1.3359 H         1 <0>         0.0559
     63 H23         2.0700   -7.2207    2.8819 H         1 <0>         0.0479
     64 H24         0.8935   -6.6245    1.6855 H         1 <0>         0.0832
     65 H25         0.4426   -5.7373    3.9820 H         1 <0>         0.0978
     66 H26        -0.9039   -6.7254    3.3643 H         1 <0>         0.0597
     67 H27         0.0439   -9.5783    5.4399 H         1 <0>         0.1007
     68 H28        -1.1420   -9.0192    4.2349 H         1 <0>         0.0610
     69 H29         0.4893  -10.5196    3.1638 H         1 <0>         0.0893
     70 H30         1.8326   -9.5083    3.7501 H         1 <0>         0.0463
@<TRIPOS>BOND
     1    1    2 1
     2    1   41 1
     3    1   42 1
     4    1   43 1
     5    2    7 ar
     6    2    3 ar
     7    3    4 ar
     8    3   44 1
     9    4    5 ar
    10    4   16 1
    11    5    6 ar
    12    5   45 1
    13    6    7 ar
    14    6   46 1
    15    7    8 1
    16    8    9 2
    17    8   10 am
    18   10   15 1
    19   10   11 1
    20   11   12 1
    21   11   47 1
    22   11   48 1
    23   12   13 1
    24   12   49 1
    25   12   50 1
    26   13   14 1
    27   14   15 1
    28   14   51 1
    29   14   52 1
    30   15   53 1
    31   15   54 1
    32   16   25 ar
    33   16   17 ar
    34   17   18 ar
    35   17   55 1
    36   18   19 ar
    37   19   24 ar
    38   19   20 ar
    39   20   21 ar
    40   20   56 1
    41   21   22 ar
    42   21   57 1
    43   22   23 ar
    44   22   58 1
    45   23   24 ar
    46   23   26 1
    47   24   25 ar
    48   26   31 ar
    49   26   27 ar
    50   27   28 ar
    51   27   59 1
    52   28   29 ar
    53   28   40 1
    54   29   30 ar
    55   29   33 1
    56   30   31 ar
    57   30   32 1
    58   31   60 1
    59   33   34 1
    60   33   61 1
    61   33   62 1
    62   34   39 1
    63   34   35 1
    64   35   36 1
    65   35   63 1
    66   35   64 1
    67   36   37 1
    68   36   65 1
    69   36   66 1
    70   37   38 1
    71   38   39 1
    72   38   67 1
    73   38   68 1
    74   39   69 1
    75   39   70 1
@<TRIPOS>MOLECULE
CHEMBL1089773
   70    75     0     0     0
SMALL
USER_CHARGES

@<TRIPOS>ATOM
      1 C1         -0.0386    1.4645   -0.0019 C.3       1 <0>        -0.0472
      2 N1         -0.0080   -0.0042   -0.0038 N.4       1 <0>        -0.3842
      3 C2         -1.3825   -0.5206   -0.0145 C.3       1 <0>        -0.0234
      4 C3         -1.3524   -2.0480   -0.1322 C.3       1 <0>         0.0967
      5 N2         -0.5114   -2.5826    0.9500 N.pl3     1 <0>        -0.6417
      6 C4          0.8283   -2.0043    1.1369 C.3       1 <0>         0.0970
      7 C5          0.6952   -0.4789    1.1946 C.3       1 <0>        -0.0232
      8 C6         -0.9711   -3.6077    1.7752 C.ar      1 <0>         0.2156
      9 C7         -2.2803   -4.0617    1.6548 C.ar      1 <0>        -0.1884
     10 C8         -2.7369   -5.0747    2.4693 C.ar      1 <0>        -0.0444
     11 C9         -1.8848   -5.6453    3.4156 C.ar      1 <0>        -0.0882
     12 C10        -0.5719   -5.1881    3.5345 C.ar      1 <0>        -0.0229
     13 C11        -0.1181   -4.1787    2.7138 C.ar      1 <0>        -0.1897
     14 C12        -2.3734   -6.7341    4.2927 C.ar      1 <0>         0.1506
     15 C13        -3.6611   -7.2670    4.0951 C.ar      1 <0>         0.0858
     16 N3         -4.1083   -8.2315    4.8626 N.ar      1 <0>        -0.4125
     17 C14        -3.3359   -8.7160    5.8440 C.ar      1 <0>         0.0737
     18 C15        -3.7944   -9.7495    6.6781 C.ar      1 <0>        -0.0695
     19 C16        -2.9972  -10.2317    7.6719 C.ar      1 <0>        -0.0967
     20 C17        -1.7225   -9.7183    7.8837 C.ar      1 <0>        -0.0693
     21 C18        -1.2308   -8.7005    7.0862 C.ar      1 <0>        -0.0301
     22 C19        -2.0393   -8.1815    6.0454 C.ar      1 <0>         0.1066
     23 N4         -1.5948   -7.2037    5.2538 N.ar      1 <0>        -0.4217
     24 C20         0.1283   -8.1589    7.3183 C.ar      1 <0>         0.0216
     25 C21         1.0204   -8.0285    6.2545 C.ar      1 <0>        -0.1256
     26 C22         2.2874   -7.5226    6.4762 C.ar      1 <0>         0.1307
     27 C23         2.6718   -7.1459    7.7526 C.ar      1 <0>        -0.1478
     28 C24         1.7893   -7.2735    8.8127 C.ar      1 <0>         0.1533
     29 C25         0.5178   -7.7725    8.6003 C.ar      1 <0>        -0.1496
     30 F1          2.1700   -6.9044   10.0553 F         1 <0>        -0.1212
     31 C26         4.0548   -6.5959    7.9888 C.3       1 <0>         0.0942
     32 N5          4.0351   -5.1357    7.8287 N.3       1 <0>        -0.5296
     33 C27         3.7506   -4.7623    6.4355 C.3       1 <0>         0.0154
     34 C28         3.6803   -3.2369    6.3259 C.3       1 <0>         0.0670
     35 O1          4.9069   -2.6730    6.7979 O.3       1 <0>        -0.3857
     36 C29         5.2147   -3.0159    8.1518 C.3       1 <0>         0.0646
     37 C30         5.3006   -4.5391    8.2799 C.3       1 <0>         0.0166
     38 F2          3.1526   -7.3957    5.4463 F         1 <0>        -0.1293
     39 H1          0.9813    1.8491   -0.0020 H         1 <0>         0.1256
     40 H2         -0.5604    1.8182   -0.8911 H         1 <0>         0.1255
     41 H3         -0.5593    1.8159    0.8889 H         1 <0>         0.1220
     42 H4         -1.8845   -0.2372    0.9106 H         1 <0>         0.1330
     43 H5         -1.9217   -0.1012   -0.8639 H         1 <0>         0.1419
     44 H6         -2.3641   -2.4426   -0.0388 H         1 <0>         0.1286
     45 H7         -0.9326   -2.3328   -1.0970 H         1 <0>         0.0902
     46 H8          1.2583   -2.3700    2.0693 H         1 <0>         0.1280
     47 H9          1.4683   -2.2847    0.3002 H         1 <0>         0.0901
     48 H10         1.6871   -0.0289    1.2362 H         1 <0>         0.1424
     49 H11         0.1304   -0.1968    2.0831 H         1 <0>         0.1332
     50 H12        -2.9395   -3.6195    0.9225 H         1 <0>         0.1299
     51 H13        -3.7537   -5.4267    2.3757 H         1 <0>         0.1356
     52 H14         0.0894   -5.6280    4.2664 H         1 <0>         0.1383
     53 H15         0.8994   -3.8278    2.8022 H         1 <0>         0.1280
     54 H16        -4.2861   -6.8781    3.3048 H         1 <0>         0.1747
     55 H17        -4.7815  -10.1625    6.5312 H         1 <0>         0.1457
     56 H18        -3.3617  -11.0261    8.3064 H         1 <0>         0.1455
     57 H19        -1.1104  -10.1178    8.6788 H         1 <0>         0.1441
     58 H20         0.7219   -8.3226    5.2591 H         1 <0>         0.1414
     59 H21        -0.1710   -7.8674    9.4266 H         1 <0>         0.1468
     60 H22         4.3777   -6.8462    8.9994 H         1 <0>         0.0968
     61 H23         4.7469   -7.0311    7.2680 H         1 <0>         0.0566
     62 H24         4.5439   -5.1375    5.7889 H         1 <0>         0.0471
     63 H25         2.7971   -5.1935    6.1305 H         1 <0>         0.0825
     64 H26         3.5263   -2.9536    5.2847 H         1 <0>         0.0921
     65 H27         2.8527   -2.8663    6.9308 H         1 <0>         0.0583
     66 H28         6.1706   -2.5727    8.4311 H         1 <0>         0.1026
     67 H29         4.4318   -2.6388    8.8098 H         1 <0>         0.0620
     68 H30         5.4786   -4.8073    9.3213 H         1 <0>         0.0917
     69 H31         6.1187   -4.9107    7.6628 H         1 <0>         0.0473
     70 H32         0.4768   -0.3282   -0.8272 H         1 <0>         0.4250
@<TRIPOS>BOND
     1    1    2 1
     2    1   39 1
     3    1   40 1
     4    1   41 1
     5    2    7 1
     6    2    3 1
     7    2   70 1
     8    3    4 1
     9    3   42 1
    10    3   43 1
    11    4    5 1
    12    4   44 1
    13    4   45 1
    14    5    6 1
    15    5    8 1
    16    6    7 1
    17    6   46 1
    18    6   47 1
    19    7   48 1
    20    7   49 1
    21    8   13 ar
    22    8    9 ar
    23    9   10 ar
    24    9   50 1
    25   10   11 ar
    26   10   51 1
    27   11   12 ar
    28   11   14 1
    29   12   13 ar
    30   12   52 1
    31   13   53 1
    32   14   23 ar
    33   14   15 ar
    34   15   16 ar
    35   15   54 1
    36   16   17 ar
    37   17   22 ar
    38   17   18 ar
    39   18   19 ar
    40   18   55 1
    41   19   20 ar
    42   19   56 1
    43   20   21 ar
    44   20   57 1
    45   21   22 ar
    46   21   24 1
    47   22   23 ar
    48   24   29 ar
    49   24   25 ar
    50   25   26 ar
    51   25   58 1
    52   26   27 ar
    53   26   38 1
    54   27   28 ar
    55   27   31 1
    56   28   29 ar
    57   28   30 1
    58   29   59 1
    59   31   32 1
    60   31   60 1
    61   31   61 1
    62   32   37 1
    63   32   33 1
    64   33   34 1
    65   33   62 1
    66   33   63 1
    67   34   35 1
    68   34   64 1
    69   34   65 1
    70   35   36 1
    71   36   37 1
    72   36   66 1
    73   36   67 1
    74   37   68 1
    75   37   69 1
@<TRIPOS>MOLECULE
CHEMBL1089773__1
   69    74     0     0     0
SMALL
USER_CHARGES

@<TRIPOS>ATOM
      1 C1          1.5856   -1.0571   -2.5062 C.3       1 <0>         0.0241
      2 N1          0.8162   -1.2845   -1.2756 N.3       1 <0>        -0.5426
      3 C2          1.6287   -1.9784   -0.2674 C.3       1 <0>         0.0380
      4 C3          0.8567   -2.0350    1.0551 C.3       1 <0>         0.1217
      5 N2         -0.4627   -2.6330    0.8007 N.pl3     1 <0>        -0.6233
      6 C4         -1.2800   -2.0777   -0.2887 C.3       1 <0>         0.1222
      7 C5         -0.4239   -2.0194   -1.5584 C.3       1 <0>         0.0383
      8 C6         -0.9265   -3.6975    1.5720 C.ar      1 <0>         0.2453
      9 C7         -2.2206   -4.1741    1.3908 C.ar      1 <0>        -0.2048
     10 C8         -2.6813   -5.2261    2.1519 C.ar      1 <0>        -0.0375
     11 C9         -1.8485   -5.8134    3.1052 C.ar      1 <0>        -0.1254
     12 C10        -0.5507   -5.3334    3.2851 C.ar      1 <0>        -0.0156
     13 C11        -0.0927   -4.2849    2.5176 C.ar      1 <0>        -0.2081
     14 C12        -2.3415   -6.9441    3.9250 C.ar      1 <0>         0.1723
     15 C13        -3.6097   -7.4962    3.6645 C.ar      1 <0>         0.0844
     16 N3         -4.0606   -8.4977    4.3808 N.ar      1 <0>        -0.4164
     17 C14        -3.3105   -9.0020    5.3695 C.ar      1 <0>         0.0641
     18 C15        -3.7732  -10.0752    6.1494 C.ar      1 <0>        -0.0672
     19 C16        -2.9988  -10.5771    7.1514 C.ar      1 <0>        -0.1056
     20 C17        -1.7436  -10.0453    7.4249 C.ar      1 <0>        -0.0729
     21 C18        -1.2485   -8.9884    6.6822 C.ar      1 <0>        -0.0314
     22 C19        -2.0334   -8.4482    5.6341 C.ar      1 <0>         0.1102
     23 N4         -1.5849   -7.4325    4.8942 N.ar      1 <0>        -0.4319
     24 C20         0.0897   -8.4273    6.9797 C.ar      1 <0>         0.0230
     25 C21         1.0134   -8.2388    5.9522 C.ar      1 <0>        -0.1236
     26 C22         2.2609   -7.7149    6.2350 C.ar      1 <0>         0.1319
     27 C23         2.5943   -7.3779    7.5366 C.ar      1 <0>        -0.1489
     28 C24         1.6802   -7.5633    8.5608 C.ar      1 <0>         0.1511
     29 C25         0.4279   -8.0807    8.2874 C.ar      1 <0>        -0.1509
     30 F1          2.0112   -7.2327    9.8282 F         1 <0>        -0.1234
     31 C26         3.9561   -6.8081    7.8395 C.3       1 <0>         0.0956
     32 N5          3.9092   -5.3438    7.7321 N.3       1 <0>        -0.5298
     33 C27         3.6628   -4.9249    6.3446 C.3       1 <0>         0.0159
     34 C28         3.5622   -3.3983    6.2882 C.3       1 <0>         0.0652
     35 O1          4.7596   -2.8267    6.8218 O.3       1 <0>        -0.3843
     36 C29         5.0301   -3.2130    8.1720 C.3       1 <0>         0.0641
     37 C30         5.1456   -4.7378    8.2474 C.3       1 <0>         0.0177
     38 F2          3.1567   -7.5318    5.2404 F         1 <0>        -0.1284
     39 H1          0.9867   -0.4754   -3.2068 H         1 <0>         0.0713
     40 H2          2.4986   -0.5113   -2.2682 H         1 <0>         0.0711
     41 H3          1.8425   -2.0159   -2.9565 H         1 <0>         0.0264
     42 H4          1.8427   -2.9917   -0.6073 H         1 <0>         0.0393
     43 H5          2.5641   -1.4386   -0.1198 H         1 <0>         0.0878
     44 H6          1.4038   -2.6467    1.7725 H         1 <0>         0.0894
     45 H7          0.7318   -1.0266    1.4496 H         1 <0>         0.0743
     46 H8         -2.1456   -2.7176   -0.4598 H         1 <0>         0.0892
     47 H9         -1.6103   -1.0734   -0.0234 H         1 <0>         0.0737
     48 H10        -0.9772   -1.5094   -2.3470 H         1 <0>         0.0877
     49 H11        -0.1813   -3.0321   -1.8803 H         1 <0>         0.0393
     50 H12        -2.8649   -3.7190    0.6532 H         1 <0>         0.1292
     51 H13        -3.6863   -5.5956    2.0111 H         1 <0>         0.1283
     52 H14         0.0956   -5.7862    4.0225 H         1 <0>         0.1312
     53 H15         0.9134   -3.9162    2.6532 H         1 <0>         0.1269
     54 H16        -4.2167   -7.0914    2.8682 H         1 <0>         0.1753
     55 H17        -4.7455  -10.5031    5.9541 H         1 <0>         0.1421
     56 H18        -3.3663  -11.4020    7.7438 H         1 <0>         0.1413
     57 H19        -1.1494  -10.4611    8.2252 H         1 <0>         0.1407
     58 H20         0.7547   -8.5019    4.9372 H         1 <0>         0.1423
     59 H21        -0.2856   -8.2207    9.0859 H         1 <0>         0.1453
     60 H22         4.2509   -7.0890    8.8506 H         1 <0>         0.0945
     61 H23         4.6813   -7.2016    7.1272 H         1 <0>         0.0551
     62 H24         4.4852   -5.2591    5.7120 H         1 <0>         0.0472
     63 H25         2.7297   -5.3644    5.9919 H         1 <0>         0.0841
     64 H26         3.4365   -3.0798    5.2534 H         1 <0>         0.0981
     65 H27         2.7070   -3.0679    6.8778 H         1 <0>         0.0599
     66 H28         5.9660   -2.7605    8.4995 H         1 <0>         0.1002
     67 H29         4.2176   -2.8773    8.8163 H         1 <0>         0.0610
     68 H30         5.2949   -5.0407    9.2837 H         1 <0>         0.0890
     69 H31         5.9916   -5.0690    7.6452 H         1 <0>         0.0457
@<TRIPOS>BOND
     1    1    2 1
     2    1   39 1
     3    1   40 1
     4    1   41 1
     5    2    7 1
     6    2    3 1
     7    3    4 1
     8    3   42 1
     9    3   43 1
    10    4    5 1
    11    4   44 1
    12    4   45 1
    13    5    6 1
    14    5    8 1
    15    6    7 1
    16    6   46 1
    17    6   47 1
    18    7   48 1
    19    7   49 1
    20    8   13 ar
    21    8    9 ar
    22    9   10 ar
    23    9   50 1
    24   10   11 ar
    25   10   51 1
    26   11   12 ar
    27   11   14 1
    28   12   13 ar
    29   12   52 1
    30   13   53 1
    31   14   23 ar
    32   14   15 ar
    33   15   16 ar
    34   15   54 1
    35   16   17 ar
    36   17   22 ar
    37   17   18 ar
    38   18   19 ar
    39   18   55 1
    40   19   20 ar
    41   19   56 1
    42   20   21 ar
    43   20   57 1
    44   21   22 ar
    45   21   24 1
    46   22   23 ar
    47   24   29 ar
    48   24   25 ar
    49   25   26 ar
    50   25   58 1
    51   26   27 ar
    52   26   38 1
    53   27   28 ar
    54   27   31 1
    55   28   29 ar
    56   28   30 1
    57   29   59 1
    58   31   32 1
    59   31   60 1
    60   31   61 1
    61   32   37 1
    62   32   33 1
    63   33   34 1
    64   33   62 1
    65   33   63 1
    66   34   35 1
    67   34   64 1
    68   34   65 1
    69   35   36 1
    70   36   37 1
    71   36   66 1
    72   36   67 1
    73   37   68 1
    74   37   69 1
@<TRIPOS>MOLECULE
CHEMBL200832
   54    57     0     0     0
SMALL
USER_CHARGES

@<TRIPOS>ATOM
      1 C1         -0.0070    1.4001    0.7145 C.3       1 <0>        -0.0467
      2 N1          0.0102   -0.0505    0.4836 N.4       1 <0>        -0.3829
      3 C2          0.7764   -0.7072    1.5511 C.3       1 <0>        -0.0560
      4 C3         -1.3667   -0.5626    0.4830 C.3       1 <0>        -0.0237
      5 C4         -1.3579   -2.0488    0.1194 C.3       1 <0>         0.0958
      6 N2         -2.7310   -2.5595    0.1188 N.am      1 <0>        -0.7343
      7 C5         -2.9687   -3.8531   -0.1755 C.2       1 <0>         0.5747
      8 O1         -2.0435   -4.5962   -0.4405 O.2       1 <0>        -0.5256
      9 C6         -4.3516   -4.3674   -0.1761 C.ar      1 <0>        -0.1748
     10 C7         -5.4168   -3.5130    0.1227 C.ar      1 <0>        -0.0605
     11 C8         -6.7056   -3.9959    0.1213 C.ar      1 <0>        -0.1263
     12 C9         -6.9489   -5.3336   -0.1767 C.ar      1 <0>         0.2128
     13 C10        -5.8903   -6.1871   -0.4742 C.ar      1 <0>        -0.1583
     14 C11        -4.5998   -5.7088   -0.4811 C.ar      1 <0>        -0.0256
     15 N3         -8.2539   -5.8191   -0.1768 N.pl3     1 <0>        -0.6370
     16 C12        -9.2977   -5.0006   -0.5783 C.ar      1 <0>         0.5638
     17 N4         -9.0245   -3.7997   -1.0681 N.ar      1 <0>        -0.5571
     18 C13        -9.9925   -2.9873   -1.4629 C.ar      1 <0>         0.1962
     19 C14       -11.3078   -3.4020   -1.3610 C.ar      1 <0>        -0.2574
     20 C15       -11.5667   -4.6752   -0.8401 C.ar      1 <0>         0.3071
     21 N5        -10.5406   -5.4406   -0.4678 N.ar      1 <0>        -0.5497
     22 C16       -12.9542   -5.1649   -0.7101 C.2       1 <0>        -0.1301
     23 C17       -13.3821   -6.3564   -0.2267 C.2       1 <0>        -0.0630
     24 C18       -14.8071   -6.6314   -0.1898 C.ar      1 <0>        -0.1073
     25 C19       -15.4718   -7.7961    0.2684 C.ar      1 <0>        -0.0633
     26 C20       -16.8271   -7.8830    0.2281 C.ar      1 <0>        -0.1231
     27 C21       -17.6079   -6.8425   -0.2590 C.ar      1 <0>        -0.0798
     28 C22       -16.9994   -5.6903   -0.7146 C.ar      1 <0>        -0.0821
     29 C23       -15.6245   -5.5882   -0.6801 C.ar      1 <0>        -0.1032
     30 S1        -14.4664   -4.3268   -1.1443 S.3       1 <0>         0.0748
     31 H1          1.0146    1.7801    0.7149 H         1 <0>         0.1279
     32 H2         -0.5756    1.8874   -0.0776 H         1 <0>         0.1250
     33 H3         -0.4729    1.6092    1.6775 H         1 <0>         0.1235
     34 H4          1.7980   -0.3272    1.5516 H         1 <0>         0.1286
     35 H5          0.3105   -0.4981    2.5141 H         1 <0>         0.1247
     36 H6          0.7892   -1.7836    1.3798 H         1 <0>         0.1266
     37 H7         -1.8028   -0.4335    1.4735 H         1 <0>         0.1376
     38 H8         -1.9584   -0.0130   -0.2490 H         1 <0>         0.1388
     39 H9         -0.9217   -2.1779   -0.8711 H         1 <0>         0.0901
     40 H10        -0.7661   -2.5984    0.8514 H         1 <0>         0.0905
     41 H11        -3.4690   -1.9666    0.3302 H         1 <0>         0.4071
     42 H12        -5.2286   -2.4752    0.3548 H         1 <0>         0.1241
     43 H13        -7.5290   -3.3363    0.3521 H         1 <0>         0.1430
     44 H14        -6.0823   -7.2246   -0.7044 H         1 <0>         0.1378
     45 H15        -3.7794   -6.3704   -0.7167 H         1 <0>         0.1420
     46 H16        -8.4324   -6.7302    0.1042 H         1 <0>         0.4292
     47 H17        -9.7575   -2.0109   -1.8600 H         1 <0>         0.1787
     48 H18       -12.1162   -2.7586   -1.6756 H         1 <0>         0.1517
     49 H19       -12.6732   -7.0911    0.1257 H         1 <0>         0.1477
     50 H20       -14.8947   -8.6238    0.6534 H         1 <0>         0.1294
     51 H21       -17.3087   -8.7823    0.5829 H         1 <0>         0.1326
     52 H22       -18.6838   -6.9345   -0.2816 H         1 <0>         0.1396
     53 H23       -17.5958   -4.8746   -1.0959 H         1 <0>         0.1361
     54 H24         0.4414   -0.2441   -0.4078 H         1 <0>         0.4305
@<TRIPOS>BOND
     1    1    2 1
     2    1   31 1
     3    1   32 1
     4    1   33 1
     5    2    3 1
     6    2    4 1
     7    2   54 1
     8    3   34 1
     9    3   35 1
    10    3   36 1
    11    4    5 1
    12    4   37 1
    13    4   38 1
    14    5    6 1
    15    5   39 1
    16    5   40 1
    17    6    7 am
    18    6   41 1
    19    7    8 2
    20    7    9 1
    21    9   14 ar
    22    9   10 ar
    23   10   11 ar
    24   10   42 1
    25   11   12 ar
    26   11   43 1
    27   12   13 ar
    28   12   15 1
    29   13   14 ar
    30   13   44 1
    31   14   45 1
    32   15   16 1
    33   15   46 1
    34   16   21 ar
    35   16   17 ar
    36   17   18 ar
    37   18   19 ar
    38   18   47 1
    39   19   20 ar
    40   19   48 1
    41   20   21 ar
    42   20   22 1
    43   22   30 1
    44   22   23 2
    45   23   24 1
    46   23   49 1
    47   24   29 ar
    48   24   25 ar
    49   25   26 ar
    50   25   50 1
    51   26   27 ar
    52   26   51 1
    53   27   28 ar
    54   27   52 1
    55   28   29 ar
    56   28   53 1
    57   29   30 1
@<TRIPOS>MOLECULE
CHEMBL568790
   35    37     0     0     0
SMALL
USER_CHARGES

@<TRIPOS>ATOM
      1 C1         -0.0305    1.4963    0.0257 C.3       1 <0>        -0.1680
      2 C2         -0.0004   -0.0334    0.0127 C.3       1 <0>         0.1441
      3 C3         -1.4325   -0.5718    0.0248 C.3       1 <0>        -0.1610
      4 N1          0.6858   -0.4980   -1.1954 N.pl3     1 <0>        -0.7100
      5 C4          2.0683   -0.6032   -1.2104 C.ar      1 <0>         0.4409
      6 C5          2.8128   -0.2755   -0.0820 C.ar      1 <0>        -0.2912
      7 C6          4.2026   -0.3993   -0.1491 C.ar      1 <0>         0.3015
      8 N2          4.7595   -0.8249   -1.2873 N.ar      1 <0>        -0.5818
      9 C7          4.0157   -1.1240   -2.3312 C.ar      1 <0>         0.3454
     10 N3          2.7017   -1.0246   -2.3038 N.ar      1 <0>        -0.5943
     11 C8          5.0425   -0.0651    1.0175 C.2       1 <0>        -0.2528
     12 C9          6.4355   -0.2367    1.1219 C.2       1 <0>         0.4259
     13 N4          6.8215    0.1759    2.3092 N.2       1 <0>        -0.3723
     14 N5          5.7087    0.6306    3.0251 N.pl3     1 <0>        -0.2936
     15 C10         4.6038    0.4892    2.2292 C.2       1 <0>         0.3159
     16 N6          3.3960    0.8543    2.6678 N.2       1 <0>        -0.4738
     17 C11         3.2404    1.3599    3.8710 C.2       1 <0>         0.1935
     18 C12         4.3466    1.5233    4.7138 C.2       1 <0>        -0.2381
     19 C13         5.5765    1.1486    4.2791 C.2       1 <0>         0.1831
     20 N7          7.2672   -0.7580    0.1320 N.pl3     1 <0>        -0.8152
     21 H1          0.9897    1.8798    0.0170 H         1 <0>         0.0604
     22 H2         -0.5617    1.8567   -0.8553 H         1 <0>         0.0582
     23 H3         -0.5411    1.8420    0.9245 H         1 <0>         0.0680
     24 H4          0.5307   -0.3938    0.8936 H         1 <0>         0.0856
     25 H5         -1.9636   -0.2113   -0.8562 H         1 <0>         0.0625
     26 H6         -1.4110   -1.6615    0.0155 H         1 <0>         0.0627
     27 H7         -1.9431   -0.2261    0.9236 H         1 <0>         0.0755
     28 H8          0.1730   -0.7322   -1.9848 H         1 <0>         0.4054
     29 H9          2.3294    0.0658    0.8215 H         1 <0>         0.1569
     30 H10         4.4963   -1.4648   -3.2363 H         1 <0>         0.1939
     31 H11         2.2571    1.6503    4.2102 H         1 <0>         0.1837
     32 H12         4.2213    1.9385    5.7029 H         1 <0>         0.1714
     33 H13         6.4412    1.2689    4.9149 H         1 <0>         0.1836
     34 H14         6.9059   -0.9702   -0.7428 H         1 <0>         0.4289
     35 H15         8.2072   -0.9086    0.3181 H         1 <0>         0.4048
@<TRIPOS>BOND
     1    1    2 1
     2    1   21 1
     3    1   22 1
     4    1   23 1
     5    2    3 1
     6    2    4 1
     7    2   24 1
     8    3   25 1
     9    3   26 1
    10    3   27 1
    11    4    5 1
    12    4   28 1
    13    5   10 ar
    14    5    6 ar
    15    6    7 ar
    16    6   29 1
    17    7    8 ar
    18    7   11 1
    19    8    9 ar
    20    9   10 ar
    21    9   30 1
    22   11   15 2
    23   11   12 1
    24   12   13 2
    25   12   20 1
    26   13   14 1
    27   14   19 1
    28   14   15 1
    29   15   16 1
    30   16   17 2
    31   17   18 1
    32   17   31 1
    33   18   19 2
    34   18   32 1
    35   19   33 1
    36   20   34 1
    37   20   35 1
@<TRIPOS>MOLECULE
CHEMBL1079690
   59    63     0     0     0
SMALL
USER_CHARGES

@<TRIPOS>ATOM
      1 C1          0.3621    3.5415    0.2101 C.2       1 <0>        -0.2182
      2 C2          1.7665    3.7025    0.2302 C.2       1 <0>        -0.1793
      3 C3          2.3014    2.4756    0.0961 C.2       1 <0>        -0.0448
      4 O1          1.3010    1.5851   -0.0037 O.3       1 <0>        -0.1711
      5 C4          0.1227    2.2258    0.0648 C.2       1 <0>        -0.0251
      6 C5          3.7735    2.1547    0.0628 C.3       1 <0>         0.2040
      7 N1          4.2486    1.8998    1.4250 N.am      1 <0>        -0.7248
      8 C6          5.5426    1.5907    1.6406 C.2       1 <0>         0.5609
      9 O2          6.3155    1.5236    0.7048 O.2       1 <0>        -0.5287
     10 C7          6.0220    1.3335    3.0152 C.ar      1 <0>        -0.1183
     11 C8          5.1333    1.4049    4.0900 C.ar      1 <0>        -0.0924
     12 C9          5.5808    1.1651    5.3703 C.ar      1 <0>        -0.0782
     13 C10         6.9214    0.8515    5.5936 C.ar      1 <0>        -0.0324
     14 C11         7.8098    0.7798    4.5208 C.ar      1 <0>        -0.0956
     15 C12         7.3627    1.0132    3.2391 C.ar      1 <0>        -0.0617
     16 C13         7.4026    0.5944    6.9727 C.ar      1 <0>         0.2545
     17 C14         8.7445    0.2848    7.2097 C.ar      1 <0>        -0.2730
     18 C15         9.1472    0.0527    8.5134 C.ar      1 <0>         0.1944
     19 N2          8.2569    0.1301    9.4894 N.ar      1 <0>        -0.5550
     20 C16         6.9902    0.4258    9.2353 C.ar      1 <0>         0.5668
     21 N3          6.5641    0.6603    8.0041 N.ar      1 <0>        -0.5600
     22 N4          6.0901    0.4963   10.2856 N.pl3     1 <0>        -0.6357
     23 C17         6.5430    0.3738   11.6056 C.ar      1 <0>         0.1036
     24 C18         7.7534    0.9422   11.9799 C.ar      1 <0>        -0.0562
     25 C19         8.2001    0.8210   13.2808 C.ar      1 <0>        -0.1795
     26 C20         7.4385    0.1311   14.2150 C.ar      1 <0>         0.2084
     27 C21         6.2278   -0.4370   13.8407 C.ar      1 <0>        -0.1791
     28 C22         5.7788   -0.3113   12.5410 C.ar      1 <0>        -0.0916
     29 N5          7.8914    0.0078   15.5335 N.pl3     1 <0>        -0.6343
     30 C23         7.1670   -0.8226   16.5087 C.3       1 <0>         0.0874
     31 C24         8.1712   -1.7659   17.1808 C.3       1 <0>         0.0453
     32 O3          9.2680   -1.0019   17.6880 O.3       1 <0>        -0.3795
     33 C25        10.0160   -0.3133   16.6830 C.3       1 <0>         0.0452
     34 C26         9.1094    0.6999   15.9839 C.3       1 <0>         0.0866
     35 H1         -0.3768    4.3241    0.2990 H         1 <0>         0.1522
     36 H2          2.3064    4.6322    0.3330 H         1 <0>         0.1520
     37 H3         -0.8518    1.7632    0.0125 H         1 <0>         0.2065
     38 H4          3.9386    1.2694   -0.5512 H         1 <0>         0.0892
     39 H5          4.3196    2.9977   -0.3606 H         1 <0>         0.1032
     40 H6          3.6318    1.9534    2.1718 H         1 <0>         0.4043
     41 H7          4.0954    1.6485    3.9173 H         1 <0>         0.1302
     42 H8          4.8936    1.2204    6.2016 H         1 <0>         0.1431
     43 H9          8.8477    0.5372    4.6947 H         1 <0>         0.1394
     44 H10         8.0498    0.9531    2.4079 H         1 <0>         0.1446
     45 H11         9.4508    0.2277    6.3947 H         1 <0>         0.1492
     46 H12        10.1769   -0.1893    8.7318 H         1 <0>         0.1726
     47 H13         5.1462    0.6306   10.1072 H         1 <0>         0.4211
     48 H14         8.3456    1.4787   11.2535 H         1 <0>         0.1277
     49 H15         9.1418    1.2625   13.5718 H         1 <0>         0.1247
     50 H16         5.6356   -0.9736   14.5671 H         1 <0>         0.1258
     51 H17         4.8353   -0.7495   12.2509 H         1 <0>         0.1243
     52 H18         6.7025   -0.1848   17.2607 H         1 <0>         0.0704
     53 H19         6.4012   -1.4057   15.9973 H         1 <0>         0.0921
     54 H20         7.6835   -2.2919   18.0016 H         1 <0>         0.1049
     55 H21         8.5372   -2.4880   16.4510 H         1 <0>         0.0558
     56 H22        10.8555    0.2057   17.1455 H         1 <0>         0.1052
     57 H23        10.3886   -1.0302   15.9513 H         1 <0>         0.0557
     58 H24         9.6292    1.1246   15.1250 H         1 <0>         0.0930
     59 H25         8.8437    1.4936   16.6821 H         1 <0>         0.0703
@<TRIPOS>BOND
     1    1    5 2
     2    1    2 1
     3    1   35 1
     4    2    3 2
     5    2   36 1
     6    3    4 1
     7    3    6 1
     8    4    5 1
     9    5   37 1
    10    6    7 1
    11    6   38 1
    12    6   39 1
    13    7    8 am
    14    7   40 1
    15    8    9 2
    16    8   10 1
    17   10   15 ar
    18   10   11 ar
    19   11   12 ar
    20   11   41 1
    21   12   13 ar
    22   12   42 1
    23   13   14 ar
    24   13   16 1
    25   14   15 ar
    26   14   43 1
    27   15   44 1
    28   16   21 ar
    29   16   17 ar
    30   17   18 ar
    31   17   45 1
    32   18   19 ar
    33   18   46 1
    34   19   20 ar
    35   20   21 ar
    36   20   22 1
    37   22   23 1
    38   22   47 1
    39   23   28 ar
    40   23   24 ar
    41   24   25 ar
    42   24   48 1
    43   25   26 ar
    44   25   49 1
    45   26   27 ar
    46   26   29 1
    47   27   28 ar
    48   27   50 1
    49   28   51 1
    50   29   34 1
    51   29   30 1
    52   30   31 1
    53   30   52 1
    54   30   53 1
    55   31   32 1
    56   31   54 1
    57   31   55 1
    58   32   33 1
    59   33   34 1
    60   33   56 1
    61   33   57 1
    62   34   58 1
    63   34   59 1
@<TRIPOS>MOLECULE
CHEMBL1079523
   41    45     0     0     0
SMALL
USER_CHARGES

@<TRIPOS>ATOM
      1 C1         -0.0167    1.3779    0.0096 C.ar      1 <0>        -0.0448
      2 C2          1.1701    2.0862    0.0021 C.ar      1 <0>        -0.1712
      3 C3          2.3794    1.4118   -0.0135 C.ar      1 <0>         0.1562
      4 C4          2.3994    0.0278   -0.0211 C.ar      1 <0>        -0.2063
      5 C5          1.2102   -0.6806   -0.0131 C.ar      1 <0>         0.1571
      6 C6          0.0021   -0.0041    0.0020 C.ar      1 <0>        -0.1709
      7 F1          1.2282   -2.0314   -0.0204 F         1 <0>        -0.1126
      8 C7          3.7149   -0.7073   -0.0385 C.3       1 <0>         0.1730
      9 N1          4.1553   -0.9528    1.3369 N.am      1 <0>        -0.5129
     10 C8          4.9410   -0.1053    2.0956 C.ar      1 <0>         0.3859
     11 C9          5.1199   -0.7252    3.3399 C.ar      1 <0>        -0.0238
     12 C10         5.8790   -0.0803    4.3010 C.ar      1 <0>         0.2059
     13 N2          6.4091    1.0996    4.0104 N.ar      1 <0>        -0.5147
     14 C11         6.2216    1.6589    2.8254 C.ar      1 <0>         0.5591
     15 N3          5.5026    1.0753    1.8791 N.ar      1 <0>        -0.5137
     16 N4          6.7990    2.9007    2.5658 N.pl3     1 <0>        -0.4221
     17 C12         6.7000    3.6129    1.4079 C.2       1 <0>         0.3126
     18 N5          7.3621    4.7285    1.5110 N.2       1 <0>        -0.4770
     19 C13         7.9322    4.8128    2.7392 C.ar      1 <0>         0.0816
     20 C14         7.5755    3.6446    3.4381 C.ar      1 <0>         0.0502
     21 C15         8.0142    3.4535    4.7359 C.ar      1 <0>        -0.0308
     22 C16         8.8072    4.4259    5.3448 C.ar      1 <0>        -0.0159
     23 C17         9.1555    5.5886    4.6441 C.ar      1 <0>        -0.0734
     24 C18         8.7321    5.7770    3.3626 C.ar      1 <0>        -0.0639
     25 C19         9.2658    4.2363    6.6880 C.1       1 <0>         0.2565
     26 N6          9.6296    4.0859    7.7536 N.1       1 <0>        -0.4093
     27 N7          4.4315   -1.9340    3.2897 N.am      1 <0>        -0.6246
     28 H1          4.3718   -2.5855    4.0060 H         1 <0>         0.4445
     29 C20         3.8576   -2.0391    2.0751 C.2       1 <0>         0.6900
     30 O1          3.1762   -2.9750    1.7008 O.2       1 <0>        -0.5112
     31 F2          3.5393    2.1044   -0.0217 F         1 <0>        -0.1164
     32 H2         -0.9594    1.9046    0.0259 H         1 <0>         0.1480
     33 H3          1.1543    3.1660    0.0080 H         1 <0>         0.1472
     34 H4         -0.9259   -0.5565    0.0082 H         1 <0>         0.1472
     35 H5          3.5926   -1.6587   -0.5562 H         1 <0>         0.1191
     36 H6          4.4609   -0.1049   -0.5569 H         1 <0>         0.1181
     37 H7          6.0362   -0.5299    5.2703 H         1 <0>         0.1925
     38 H8          6.1520    3.2973    0.5324 H         1 <0>         0.2282
     39 H9          7.7441    2.5571    5.2744 H         1 <0>         0.1518
     40 H10         9.7695    6.3381    5.1212 H         1 <0>         0.1441
     41 H11         9.0048    6.6769    2.8314 H         1 <0>         0.1466
@<TRIPOS>BOND
     1    1    6 ar
     2    1    2 ar
     3    1   32 1
     4    2    3 ar
     5    2   33 1
     6    3    4 ar
     7    3   31 1
     8    4    5 ar
     9    4    8 1
    10    5    6 ar
    11    5    7 1
    12    6   34 1
    13    8    9 1
    14    8   35 1
    15    8   36 1
    16    9   29 am
    17    9   10 1
    18   10   15 ar
    19   10   11 ar
    20   11   12 ar
    21   11   27 1
    22   12   13 ar
    23   12   37 1
    24   13   14 ar
    25   14   15 ar
    26   14   16 1
    27   16   20 1
    28   16   17 1
    29   17   18 2
    30   17   38 1
    31   18   19 1
    32   19   24 ar
    33   19   20 ar
    34   20   21 ar
    35   21   22 ar
    36   21   39 1
    37   22   23 ar
    38   22   25 1
    39   23   24 ar
    40   23   40 1
    41   24   41 1
    42   25   26 3
    43   27   28 1
    44   27   29 am
    45   29   30 2
@<TRIPOS>MOLECULE
CHEMBL510641
   29    31     0     0     0
SMALL
USER_CHARGES

@<TRIPOS>ATOM
      1 C1         -1.6685    0.8792   -0.1989 C.3       1 <0>        -0.0806
      2 C2         -0.6988   -0.2689   -0.0869 C.2       1 <0>         0.0748
      3 C3         -0.0661   -0.7873   -1.1872 C.2       1 <0>        -0.1577
      4 S1          0.9123   -2.0730   -0.4267 S.3       1 <0>         0.1062
      5 C4          0.4271   -1.8226    1.1653 C.2       1 <0>         0.0494
      6 N1         -0.4125   -0.8208    1.0723 N.2       1 <0>        -0.5135
      7 C5          0.8587   -2.5682    2.4018 C.3       1 <0>        -0.0662
      8 C6         -0.1661   -0.3915   -2.6090 C.ar      1 <0>        -0.0523
      9 C7         -0.0846    0.9619   -2.9656 C.ar      1 <0>        -0.0364
     10 C8         -0.1749    1.3435   -4.2709 C.ar      1 <0>        -0.1460
     11 C9         -0.3497    0.3871   -5.2705 C.ar      1 <0>         0.1617
     12 C10        -0.4327   -0.9759   -4.9261 C.ar      1 <0>        -0.1956
     13 C11        -0.3348   -1.3615   -3.5876 C.ar      1 <0>        -0.0088
     14 C12        -0.6125   -1.7070   -6.1821 C.2       1 <0>         0.3659
     15 N2         -0.6294   -0.8310   -7.1511 N.2       1 <0>        -0.3195
     16 N3         -0.4717    0.4588   -6.6344 N.pl3     1 <0>        -0.5035
     17 H1         -0.4518    1.2751   -7.1580 H         1 <0>         0.4428
     18 N4         -0.7426   -3.0916   -6.3193 N.pl3     1 <0>        -0.8326
     19 H2         -1.1192    1.8206   -0.1935 H         1 <0>         0.0750
     20 H3         -2.2297    0.7913   -1.1293 H         1 <0>         0.0763
     21 H4         -2.3581    0.8560    0.6449 H         1 <0>         0.0751
     22 H5          1.7355   -2.0833    2.8309 H         1 <0>         0.0896
     23 H6          0.0479   -2.5636    3.1303 H         1 <0>         0.0922
     24 H7          1.1047   -3.5969    2.1384 H         1 <0>         0.0856
     25 H8          0.0507    1.7096   -2.1982 H         1 <0>         0.1342
     26 H9         -0.1112    2.3896   -4.5318 H         1 <0>         0.1341
     27 H10        -0.3937   -2.4051   -3.3157 H         1 <0>         0.1271
     28 H11        -0.7171   -3.6613   -5.5346 H         1 <0>         0.4130
     29 H12        -0.8584   -3.4830   -7.1993 H         1 <0>         0.4097
@<TRIPOS>BOND
     1    1    2 1
     2    1   19 1
     3    1   20 1
     4    1   21 1
     5    2    6 1
     6    2    3 2
     7    3    4 1
     8    3    8 1
     9    4    5 1
    10    5    6 2
    11    5    7 1
    12    7   22 1
    13    7   23 1
    14    7   24 1
    15    8   13 ar
    16    8    9 ar
    17    9   10 ar
    18    9   25 1
    19   10   11 ar
    20   10   26 1
    21   11   16 1
    22   11   12 ar
    23   12   13 ar
    24   12   14 1
    25   13   27 1
    26   14   15 2
    27   14   18 1
    28   15   16 1
    29   16   17 1
    30   18   28 1
    31   18   29 1
@<TRIPOS>MOLECULE
CHEMBL510641__1
   29    31     0     0     0
SMALL
USER_CHARGES

@<TRIPOS>ATOM
      1 C1         -1.6715    0.8768   -0.1993 C.3       1 <0>        -0.0789
      2 C2         -0.7002   -0.2700   -0.0870 C.2       1 <0>         0.0672
      3 C3         -0.0661   -0.7878   -1.1876 C.2       1 <0>        -0.1456
      4 S1          0.9137   -2.0722   -0.4265 S.3       1 <0>         0.0943
      5 C4          0.4276   -1.8223    1.1652 C.2       1 <0>         0.0447
      6 N1         -0.4132   -0.8218    1.0722 N.2       1 <0>        -0.5118
      7 C5          0.8604   -2.5668    2.4019 C.3       1 <0>        -0.0649
      8 C6         -0.1661   -0.3925   -2.6087 C.ar      1 <0>        -0.0691
      9 C7         -0.0829    0.9702   -2.9546 C.ar      1 <0>        -0.0396
     10 C8         -0.1687    1.3829   -4.2405 C.ar      1 <0>        -0.1172
     11 C9         -0.3462    0.4357   -5.2743 C.ar      1 <0>         0.1464
     12 C10        -0.4343   -0.9902   -4.9233 C.ar      1 <0>        -0.2674
     13 C11        -0.3337   -1.3670   -3.5732 C.ar      1 <0>         0.0117
     14 C12        -0.6055   -1.6790   -6.1229 C.2       1 <0>         0.4083
     15 N2         -0.6217   -0.7721   -7.1141 N.pl3     1 <0>        -0.4618
     16 N3         -0.4630    0.5142   -6.5874 N.2       1 <0>        -0.3181
     17 H1         -0.7280   -0.9787   -8.0559 H         1 <0>         0.4406
     18 N4         -0.7349   -3.0512   -6.2672 N.pl3     1 <0>        -0.8373
     19 H2         -1.1234    1.8190   -0.1934 H         1 <0>         0.0744
     20 H3         -2.2320    0.7883   -1.1299 H         1 <0>         0.0766
     21 H4         -2.3614    0.8525    0.6442 H         1 <0>         0.0732
     22 H5          1.7363   -2.0801    2.8311 H         1 <0>         0.0883
     23 H6          0.0496   -2.5637    3.1303 H         1 <0>         0.0910
     24 H7          1.1086   -3.5951    2.1388 H         1 <0>         0.0842
     25 H8          0.0524    1.7042   -2.1740 H         1 <0>         0.1285
     26 H9         -0.1019    2.4347   -4.4765 H         1 <0>         0.1335
     27 H10        -0.3913   -2.4082   -3.2920 H         1 <0>         0.1189
     28 H11        -0.7097   -3.6256   -5.4859 H         1 <0>         0.4222
     29 H12        -0.8507   -3.4373   -7.1494 H         1 <0>         0.4077
@<TRIPOS>BOND
     1    1    2 1
     2    1   19 1
     3    1   20 1
     4    1   21 1
     5    2    6 1
     6    2    3 2
     7    3    4 1
     8    3    8 1
     9    4    5 1
    10    5    6 2
    11    5    7 1
    12    7   22 1
    13    7   23 1
    14    7   24 1
    15    8   13 ar
    16    8    9 ar
    17    9   10 ar
    18    9   25 1
    19   10   11 ar
    20   10   26 1
    21   11   12 ar
    22   11   16 2
    23   12   13 ar
    24   12   14 2
    25   13   27 1
    26   14   18 1
    27   14   15 1
    28   15   17 1
    29   15   16 1
    30   18   28 1
    31   18   29 1
@<TRIPOS>MOLECULE
CHEMBL510641__2
   30    32     0     0     0
SMALL
USER_CHARGES

@<TRIPOS>ATOM
      1 C1         -1.6715    0.8768   -0.1993 C.3       1 <0>        -0.0902
      2 C2         -0.7002   -0.2700   -0.0870 C.2       1 <0>         0.1091
      3 C3         -0.0661   -0.7878   -1.1876 C.2       1 <0>        -0.2169
      4 S1          0.9137   -2.0722   -0.4265 S.3       1 <0>         0.1265
      5 C4          0.4276   -1.8223    1.1652 C.2       1 <0>         0.0791
      6 N1         -0.4132   -0.8218    1.0722 N.2       1 <0>        -0.5186
      7 C5          0.8604   -2.5668    2.4019 C.3       1 <0>        -0.0755
      8 C6         -0.1661   -0.3925   -2.6087 C.ar      1 <0>        -0.0119
      9 C7         -0.0829    0.9702   -2.9546 C.ar      1 <0>         0.0188
     10 C8         -0.1687    1.3829   -4.2405 C.ar      1 <0>        -0.1457
     11 C9         -0.3462    0.4357   -5.2743 C.ar      1 <0>         0.2342
     12 C10        -0.4343   -0.9902   -4.9233 C.ar      1 <0>        -0.2293
     13 C11        -0.3337   -1.3670   -3.5732 C.ar      1 <0>         0.0115
     14 C12        -0.6055   -1.6790   -6.1229 C.2       1 <0>         0.5305
     15 N2         -0.6217   -0.7721   -7.1141 N.pl3     1 <0>        -0.4343
     16 N3         -0.4630    0.5142   -6.5874 N.pl3     1 <0>        -0.4211
     17 H1         -0.7280   -0.9787   -8.0559 H         1 <0>         0.4703
     18 N4         -0.7349   -3.0512   -6.2672 N.pl3     1 <0>        -0.7813
     19 H2         -1.1234    1.8190   -0.1934 H         1 <0>         0.0814
     20 H3         -2.2320    0.7883   -1.1299 H         1 <0>         0.0760
     21 H4         -2.3614    0.8525    0.6442 H         1 <0>         0.0833
     22 H5          1.7363   -2.0801    2.8311 H         1 <0>         0.0972
     23 H6          0.0496   -2.5637    3.1303 H         1 <0>         0.0991
     24 H7          1.1086   -3.5951    2.1388 H         1 <0>         0.0907
     25 H8          0.0524    1.7042   -2.1740 H         1 <0>         0.1571
     26 H9         -0.1019    2.4347   -4.4765 H         1 <0>         0.1610
     27 H10        -0.3913   -2.4082   -3.2920 H         1 <0>         0.1486
     28 H11        -0.7097   -3.6256   -5.4859 H         1 <0>         0.4465
     29 H12        -0.8507   -3.4373   -7.1494 H         1 <0>         0.4296
     30 H13        -0.4423    1.3343   -7.1050 H         1 <0>         0.4743
@<TRIPOS>BOND
     1    1    2 1
     2    1   19 1
     3    1   20 1
     4    1   21 1
     5    2    6 1
     6    2    3 2
     7    3    4 1
     8    3    8 1
     9    4    5 1
    10    5    6 2
    11    5    7 1
    12    7   22 1
    13    7   23 1
    14    7   24 1
    15    8   13 ar
    16    8    9 ar
    17    9   10 ar
    18    9   25 1
    19   10   11 ar
    20   10   26 1
    21   11   12 ar
    22   11   16 2
    23   12   13 ar
    24   12   14 2
    25   13   27 1
    26   14   18 1
    27   14   15 1
    28   15   17 1
    29   15   16 1
    30   16   30 1
    31   18   28 1
    32   18   29 1
@<TRIPOS>MOLECULE
CHEMBL220585
   40    43     0     0     0
SMALL
USER_CHARGES

@<TRIPOS>ATOM
      1 C1         -0.0187    1.5258    0.0104 C.3       1 <0>        -0.1664
      2 C2          0.0021   -0.0041    0.0020 C.3       1 <0>         0.1914
      3 H1         -1.0205   -0.3814    0.0098 H         1 <0>         0.0962
      4 C3          0.7074   -0.4901   -1.2379 C.ar      1 <0>        -0.0990
      5 C4          2.0889   -0.5108   -1.2839 C.ar      1 <0>        -0.1120
      6 C5          2.7359   -0.9566   -2.4212 C.ar      1 <0>        -0.1139
      7 C6          2.0015   -1.3821   -3.5123 C.ar      1 <0>        -0.1139
      8 C7          0.6201   -1.3622   -3.4659 C.ar      1 <0>        -0.1146
      9 C8         -0.0269   -0.9205   -2.3270 C.ar      1 <0>        -0.1057
     10 N1          0.7106   -0.4894    1.1889 N.pl3     1 <0>        -0.6983
     11 C9          0.0328   -0.6375    2.3880 C.ar      1 <0>         0.4752
     12 C10        -1.3276   -0.3327    2.4756 C.ar      1 <0>        -0.3066
     13 C11        -1.9616   -0.4962    3.6915 C.ar      1 <0>         0.2093
     14 N2         -1.2663   -0.9340    4.7311 N.ar      1 <0>        -0.5699
     15 C12         0.0220   -1.2150    4.6187 C.ar      1 <0>         0.5852
     16 N3          0.6659   -1.0769    3.4707 N.ar      1 <0>        -0.5936
     17 N4          0.7167   -1.6727    5.7356 N.pl3     1 <0>        -0.4249
     18 C13         2.0419   -1.9992    5.7879 C.2       1 <0>         0.2975
     19 N5          2.3584   -2.3895    6.9877 N.2       1 <0>        -0.4642
     20 C14         1.2635   -2.3418    7.7881 C.ar      1 <0>        -0.0062
     21 C15         0.1966   -1.8751    6.9954 C.ar      1 <0>         0.0934
     22 C16        -1.0539   -1.7271    7.5822 C.ar      1 <0>        -0.1360
     23 C17        -1.2026   -2.0388    8.9172 C.ar      1 <0>         0.0962
     24 N6         -0.1823   -2.4720    9.6380 N.ar      1 <0>        -0.4793
     25 C18         1.0208   -2.6374    9.1291 C.ar      1 <0>         0.1714
     26 H2          1.0039    1.9031    0.0027 H         1 <0>         0.0652
     27 H3         -0.5459    1.8868   -0.8726 H         1 <0>         0.0753
     28 H4         -0.5289    1.8773    0.9072 H         1 <0>         0.0658
     29 H5          2.6626   -0.1783   -0.4315 H         1 <0>         0.1207
     30 H6          3.8152   -0.9721   -2.4575 H         1 <0>         0.1260
     31 H7          2.5070   -1.7297   -4.4012 H         1 <0>         0.1254
     32 H8          0.0463   -1.6944   -4.3185 H         1 <0>         0.1268
     33 H9         -1.1062   -0.9085   -2.2894 H         1 <0>         0.1258
     34 H10         1.6544   -0.7070    1.1351 H         1 <0>         0.4101
     35 H11        -1.8709    0.0230    1.6126 H         1 <0>         0.1520
     36 H12        -3.0125   -0.2694    3.7940 H         1 <0>         0.1795
     37 H13         2.7268   -1.9421    4.9548 H         1 <0>         0.2276
     38 H14        -1.8944   -1.3737    7.0033 H         1 <0>         0.1523
     39 H15        -2.1706   -1.9268    9.3828 H         1 <0>         0.1669
     40 H16         1.8257   -2.9921    9.7557 H         1 <0>         0.1694
@<TRIPOS>BOND
     1    1    2 1
     2    1   26 1
     3    1   27 1
     4    1   28 1
     5    2    3 1
     6    2    4 1
     7    2   10 1
     8    4    9 ar
     9    4    5 ar
    10    5    6 ar
    11    5   29 1
    12    6    7 ar
    13    6   30 1
    14    7    8 ar
    15    7   31 1
    16    8    9 ar
    17    8   32 1
    18    9   33 1
    19   10   11 1
    20   10   34 1
    21   11   16 ar
    22   11   12 ar
    23   12   13 ar
    24   12   35 1
    25   13   14 ar
    26   13   36 1
    27   14   15 ar
    28   15   16 ar
    29   15   17 1
    30   17   21 1
    31   17   18 1
    32   18   19 2
    33   18   37 1
    34   19   20 1
    35   20   25 ar
    36   20   21 ar
    37   21   22 ar
    38   22   23 ar
    39   22   38 1
    40   23   24 ar
    41   23   39 1
    42   24   25 ar
    43   25   40 1
@<TRIPOS>MOLECULE
CHEMBL220483
   59    63     0     0     0
SMALL
USER_CHARGES

@<TRIPOS>ATOM
      1 C1         -0.0187    1.5258    0.0104 C.3       1 <0>        -0.1689
      2 C2          0.0021   -0.0041    0.0020 C.3       1 <0>         0.1886
      3 H1         -1.0205   -0.3814    0.0098 H         1 <0>         0.0985
      4 C3          0.7074   -0.4901   -1.2379 C.ar      1 <0>        -0.1059
      5 C4          2.0889   -0.5108   -1.2839 C.ar      1 <0>        -0.1133
      6 C5          2.7359   -0.9566   -2.4212 C.ar      1 <0>        -0.1123
      7 C6          2.0015   -1.3821   -3.5123 C.ar      1 <0>        -0.1089
      8 C7          0.6201   -1.3622   -3.4659 C.ar      1 <0>        -0.1117
      9 C8         -0.0269   -0.9205   -2.3270 C.ar      1 <0>        -0.1038
     10 N1          0.7106   -0.4894    1.1889 N.pl3     1 <0>        -0.6856
     11 C9          0.0325   -0.6375    2.3885 C.ar      1 <0>         0.4860
     12 C10        -1.3252   -0.3330    2.4749 C.ar      1 <0>        -0.2709
     13 C11        -1.9633   -0.4980    3.7023 C.ar      1 <0>         0.2994
     14 N2         -1.2578   -0.9385    4.7448 N.ar      1 <0>        -0.5635
     15 C12         0.0289   -1.2167    4.6228 C.ar      1 <0>         0.5589
     16 N3          0.6669   -1.0774    3.4714 N.ar      1 <0>        -0.5855
     17 N4          0.7310   -1.6745    5.7349 N.pl3     1 <0>        -0.3553
     18 C13         0.2231   -1.8826    6.9831 C.cat     1 <0>         0.4269
     19 N5          1.1584   -2.3128    7.7806 N.pl3     1 <0>        -0.4831
     20 C14         2.3264   -2.4107    7.1041 C.ar      1 <0>         0.0863
     21 C15         2.0716   -2.0086    5.7781 C.ar      1 <0>         0.0264
     22 C16         3.1092   -2.0201    4.8614 C.ar      1 <0>         0.1908
     23 N6          4.3155   -2.4063    5.2292 N.ar      1 <0>        -0.4385
     24 C17         4.5878   -2.7924    6.4640 C.ar      1 <0>         0.1356
     25 C18         3.6271   -2.8048    7.4361 C.ar      1 <0>        -0.1266
     26 C19        -3.4056   -0.1878    3.8475 C.ar      1 <0>        -0.0806
     27 C20        -4.1358    0.2672    2.7504 C.ar      1 <0>        -0.0693
     28 C21        -5.4780    0.5552    2.8861 C.ar      1 <0>        -0.1794
     29 C22        -6.1042    0.3935    4.1133 C.ar      1 <0>         0.1393
     30 C23        -5.3796   -0.0603    5.2129 C.ar      1 <0>         0.0929
     31 C24        -4.0353   -0.3561    5.0801 C.ar      1 <0>        -0.1224
     32 O1         -5.9951   -0.2173    6.4154 O.3       1 <0>        -0.2997
     33 C25        -5.1909   -0.6863    7.4996 C.3       1 <0>         0.0248
     34 O2         -7.4267    0.6788    4.2431 O.3       1 <0>        -0.2979
     35 C26        -8.1085    1.1402    3.0750 C.3       1 <0>         0.0206
     36 H2          1.0039    1.9031    0.0027 H         1 <0>         0.0689
     37 H3         -0.5459    1.8868   -0.8726 H         1 <0>         0.0816
     38 H4         -0.5289    1.8773    0.9072 H         1 <0>         0.0651
     39 H5          2.6626   -0.1783   -0.4315 H         1 <0>         0.1192
     40 H6          3.8152   -0.9721   -2.4575 H         1 <0>         0.1277
     41 H7          2.5070   -1.7297   -4.4012 H         1 <0>         0.1281
     42 H8          0.0463   -1.6944   -4.3185 H         1 <0>         0.1293
     43 H9         -1.1062   -0.9085   -2.2894 H         1 <0>         0.1265
     44 H10         1.6544   -0.7070    1.1351 H         1 <0>         0.4148
     45 H11        -1.8687    0.0223    1.6119 H         1 <0>         0.1649
     46 H12        -0.8048   -1.7147    7.2688 H         1 <0>         0.2789
     47 H13         2.9301   -1.7123    3.8418 H         1 <0>         0.1937
     48 H14         5.5934   -3.0990    6.7116 H         1 <0>         0.1917
     49 H15         3.8651   -3.1246    8.4398 H         1 <0>         0.1705
     50 H16        -3.6504    0.3946    1.7941 H         1 <0>         0.1359
     51 H17        -6.0424    0.9076    2.0354 H         1 <0>         0.1484
     52 H18        -3.4731   -0.7123    5.9307 H         1 <0>         0.1459
     53 H19        -4.7805   -1.6649    7.2506 H         1 <0>         0.0547
     54 H20        -4.3756    0.0151    7.6772 H         1 <0>         0.0548
     55 H21        -5.8031   -0.7669    8.3978 H         1 <0>         0.1057
     56 H22        -7.6435    2.0609    2.7228 H         1 <0>         0.0611
     57 H23        -8.0478    0.3811    2.2952 H         1 <0>         0.0610
     58 H24        -9.1543    1.3305    3.3161 H         1 <0>         0.1085
     59 H25         1.0363   -2.5299    8.7181 H         1 <0>         0.4716
@<TRIPOS>BOND
     1    1    2 1
     2    1   36 1
     3    1   37 1
     4    1   38 1
     5    2    3 1
     6    2    4 1
     7    2   10 1
     8    4    9 ar
     9    4    5 ar
    10    5    6 ar
    11    5   39 1
    12    6    7 ar
    13    6   40 1
    14    7    8 ar
    15    7   41 1
    16    8    9 ar
    17    8   42 1
    18    9   43 1
    19   10   11 1
    20   10   44 1
    21   11   16 ar
    22   11   12 ar
    23   12   13 ar
    24   12   45 1
    25   13   14 ar
    26   13   26 1
    27   14   15 ar
    28   15   16 ar
    29   15   17 1
    30   17   21 1
    31   17   18 1
    32   18   19 2
    33   18   46 1
    34   19   20 1
    35   19   59 1
    36   20   25 ar
    37   20   21 ar
    38   21   22 ar
    39   22   23 ar
    40   22   47 1
    41   23   24 ar
    42   24   25 ar
    43   24   48 1
    44   25   49 1
    45   26   31 ar
    46   26   27 ar
    47   27   28 ar
    48   27   50 1
    49   28   29 ar
    50   28   51 1
    51   29   30 ar
    52   29   34 1
    53   30   31 ar
    54   30   32 1
    55   31   52 1
    56   32   33 1
    57   33   53 1
    58   33   54 1
    59   33   55 1
    60   34   35 1
    61   35   56 1
    62   35   57 1
    63   35   58 1
@<TRIPOS>MOLECULE
CHEMBL221029
   41    44     0     0     0
SMALL
USER_CHARGES

@<TRIPOS>ATOM
      1 C1         -0.0187    1.5258    0.0104 C.3       1 <0>        -0.1682
      2 C2          0.0021   -0.0041    0.0020 C.3       1 <0>         0.1884
      3 H1          0.5123   -0.3556   -0.8948 H         1 <0>         0.1002
      4 C3          0.7309   -0.5033    1.2229 C.ar      1 <0>        -0.1065
      5 C4          0.0808   -0.5585    2.4416 C.ar      1 <0>        -0.1143
      6 C5          0.7494   -1.0164    3.5615 C.ar      1 <0>        -0.1132
      7 C6          2.0680   -1.4196    3.4626 C.ar      1 <0>        -0.1087
      8 C7          2.7178   -1.3652    2.2438 C.ar      1 <0>        -0.1112
      9 C8          2.0479   -0.9113    1.1230 C.ar      1 <0>        -0.1035
     10 N1         -1.3723   -0.5112    0.0124 N.pl3     1 <0>        -0.6857
     11 C9         -2.0698   -0.6464   -1.1769 C.ar      1 <0>         0.4799
     12 C10        -1.4706   -0.3078   -2.3925 C.ar      1 <0>        -0.2700
     13 C11        -2.2044   -0.4591   -3.5526 C.ar      1 <0>         0.2144
     14 N2         -3.4456   -0.9174   -3.4790 N.ar      1 <0>        -0.5529
     15 C12        -3.9876   -1.2304   -2.3130 C.ar      1 <0>         0.5490
     16 N3         -3.3170   -1.1054   -1.1789 N.ar      1 <0>        -0.5882
     17 N4         -5.2949   -1.7088   -2.2791 N.pl3     1 <0>        -0.3568
     18 C13        -5.9964   -2.0680   -1.1663 C.cat     1 <0>         0.4253
     19 N5         -7.1893   -2.4697   -1.4999 N.pl3     1 <0>        -0.4830
     20 C14        -7.3369   -2.3970   -2.8432 C.ar      1 <0>         0.0854
     21 C15        -6.1259   -1.9027   -3.3665 C.ar      1 <0>         0.0264
     22 C16        -6.0081   -1.7245   -4.7345 C.ar      1 <0>         0.1920
     23 N6         -7.0193   -2.0125   -5.5307 N.ar      1 <0>        -0.4384
     24 C17        -8.1698   -2.4753   -5.0725 C.ar      1 <0>         0.1364
     25 C18        -8.3722   -2.6891   -3.7378 C.ar      1 <0>        -0.1278
     26 H2          1.0039    1.9031    0.0027 H         1 <0>         0.0819
     27 H3         -0.5459    1.8868   -0.8726 H         1 <0>         0.0653
     28 H4         -0.5289    1.8773    0.9072 H         1 <0>         0.0678
     29 H5         -0.9493   -0.2435    2.5188 H         1 <0>         0.1183
     30 H6          0.2417   -1.0589    4.5138 H         1 <0>         0.1274
     31 H7          2.5905   -1.7767    4.3377 H         1 <0>         0.1284
     32 H8          3.7481   -1.6798    2.1666 H         1 <0>         0.1299
     33 H9          2.5545   -0.8723    0.1700 H         1 <0>         0.1274
     34 H10        -1.7940   -0.7522    0.8520 H         1 <0>         0.4137
     35 H11        -0.4571    0.0641   -2.4243 H         1 <0>         0.1661
     36 H12        -1.7716   -0.2063   -4.5092 H         1 <0>         0.1950
     37 H13        -5.6178   -2.0256   -0.1557 H         1 <0>         0.2785
     38 H14        -5.0854   -1.3481   -5.1508 H         1 <0>         0.1981
     39 H15        -8.9655   -2.6951   -5.7689 H         1 <0>         0.1917
     40 H16        -9.3184   -3.0663   -3.3790 H         1 <0>         0.1701
     41 H17        -7.8695   -2.7748   -0.8793 H         1 <0>         0.4713
@<TRIPOS>BOND
     1    1    2 1
     2    1   26 1
     3    1   27 1
     4    1   28 1
     5    2    3 1
     6    2    4 1
     7    2   10 1
     8    4    9 ar
     9    4    5 ar
    10    5    6 ar
    11    5   29 1
    12    6    7 ar
    13    6   30 1
    14    7    8 ar
    15    7   31 1
    16    8    9 ar
    17    8   32 1
    18    9   33 1
    19   10   11 1
    20   10   34 1
    21   11   16 ar
    22   11   12 ar
    23   12   13 ar
    24   12   35 1
    25   13   14 ar
    26   13   36 1
    27   14   15 ar
    28   15   16 ar
    29   15   17 1
    30   17   21 1
    31   17   18 1
    32   18   19 2
    33   18   37 1
    34   19   20 1
    35   19   41 1
    36   20   25 ar
    37   20   21 ar
    38   21   22 ar
    39   22   23 ar
    40   22   38 1
    41   23   24 ar
    42   24   25 ar
    43   24   39 1
    44   25   40 1
@<TRIPOS>MOLECULE
CHEMBL222027
   48    52     0     0     0
SMALL
USER_CHARGES

@<TRIPOS>ATOM
      1 C1         -0.0187    1.5258    0.0104 C.3       1 <0>        -0.1690
      2 C2          0.0021   -0.0041    0.0020 C.3       1 <0>         0.1889
      3 H1          0.5123   -0.3556   -0.8948 H         1 <0>         0.0982
      4 C3          0.7309   -0.5033    1.2229 C.ar      1 <0>        -0.1064
      5 C4          0.0808   -0.5585    2.4416 C.ar      1 <0>        -0.1133
      6 C5          0.7494   -1.0164    3.5615 C.ar      1 <0>        -0.1123
      7 C6          2.0680   -1.4196    3.4626 C.ar      1 <0>        -0.1087
      8 C7          2.7178   -1.3652    2.2438 C.ar      1 <0>        -0.1117
      9 C8          2.0479   -0.9113    1.1230 C.ar      1 <0>        -0.1039
     10 N1         -1.3723   -0.5112    0.0124 N.pl3     1 <0>        -0.6858
     11 C9         -2.0701   -0.6465   -1.1775 C.ar      1 <0>         0.4873
     12 C10        -1.4714   -0.3084   -2.3895 C.ar      1 <0>        -0.2765
     13 C11        -2.2129   -0.4621   -3.5595 C.ar      1 <0>         0.3285
     14 N2         -3.4614   -0.9243   -3.4787 N.ar      1 <0>        -0.5582
     15 C12        -3.9944   -1.2342   -2.3091 C.ar      1 <0>         0.5601
     16 N3         -3.3185   -1.1060   -1.1784 N.ar      1 <0>        -0.5862
     17 N4         -5.3011   -1.7139   -2.2662 N.pl3     1 <0>        -0.3566
     18 C13        -6.1250   -1.9141   -3.3342 C.cat     1 <0>         0.4297
     19 N5         -7.2760   -2.3711   -2.9317 N.pl3     1 <0>        -0.4835
     20 C14        -7.2721   -2.4958   -1.5841 C.ar      1 <0>         0.0861
     21 C15        -6.0031   -2.0816   -1.1337 C.ar      1 <0>         0.0262
     22 C16        -5.7277   -2.1151    0.2227 C.ar      1 <0>         0.1903
     23 N6         -6.6429   -2.5329    1.0757 N.ar      1 <0>        -0.4387
     24 C17        -7.8420   -2.9310    0.6865 C.ar      1 <0>         0.1354
     25 C18        -8.2031   -2.9242   -0.6317 C.ar      1 <0>        -0.1265
     26 C19        -1.6228   -0.1165   -4.8742 C.2       1 <0>        -0.1806
     27 C20        -2.2992   -0.1179   -6.1770 C.2       1 <0>        -0.1790
     28 C21        -1.3746    0.2608   -7.0747 C.2       1 <0>        -0.0240
     29 O1         -0.2151    0.4880   -6.4389 O.3       1 <0>        -0.1660
     30 C22        -0.3444    0.2733   -5.1230 C.2       1 <0>         0.0398
     31 H2          1.0039    1.9031    0.0027 H         1 <0>         0.0817
     32 H3         -0.5459    1.8868   -0.8726 H         1 <0>         0.0648
     33 H4         -0.5289    1.8773    0.9072 H         1 <0>         0.0691
     34 H5         -0.9493   -0.2435    2.5188 H         1 <0>         0.1192
     35 H6          0.2417   -1.0589    4.5138 H         1 <0>         0.1279
     36 H7          2.5905   -1.7767    4.3377 H         1 <0>         0.1282
     37 H8          3.7481   -1.6798    2.1666 H         1 <0>         0.1294
     38 H9          2.5545   -0.8723    0.1700 H         1 <0>         0.1266
     39 H10        -1.7940   -0.7522    0.8520 H         1 <0>         0.4150
     40 H11        -0.4580    0.0638   -2.4214 H         1 <0>         0.1618
     41 H12        -5.8614   -1.7216   -4.3637 H         1 <0>         0.2806
     42 H13        -4.7602   -1.7985    0.5835 H         1 <0>         0.1935
     43 H14        -8.5539   -3.2640    1.4272 H         1 <0>         0.1916
     44 H15        -9.1862   -3.2541   -0.9338 H         1 <0>         0.1705
     45 H16        -3.3303   -0.3721   -6.3736 H         1 <0>         0.1592
     46 H17        -1.5381    0.3653   -8.1371 H         1 <0>         0.2128
     47 H18         0.4356    0.3883   -4.3849 H         1 <0>         0.2131
     48 H19        -8.0233   -2.5892   -3.5103 H         1 <0>         0.4717
@<TRIPOS>BOND
     1    1    2 1
     2    1   31 1
     3    1   32 1
     4    1   33 1
     5    2    3 1
     6    2    4 1
     7    2   10 1
     8    4    9 ar
     9    4    5 ar
    10    5    6 ar
    11    5   34 1
    12    6    7 ar
    13    6   35 1
    14    7    8 ar
    15    7   36 1
    16    8    9 ar
    17    8   37 1
    18    9   38 1
    19   10   11 1
    20   10   39 1
    21   11   16 ar
    22   11   12 ar
    23   12   13 ar
    24   12   40 1
    25   13   14 ar
    26   13   26 1
    27   14   15 ar
    28   15   16 ar
    29   15   17 1
    30   17   21 1
    31   17   18 1
    32   18   19 2
    33   18   41 1
    34   19   20 1
    35   19   48 1
    36   20   25 ar
    37   20   21 ar
    38   21   22 ar
    39   22   23 ar
    40   22   42 1
    41   23   24 ar
    42   24   25 ar
    43   24   43 1
    44   25   44 1
    45   26   30 2
    46   26   27 1
    47   27   28 2
    48   27   45 1
    49   28   29 1
    50   28   46 1
    51   29   30 1
    52   30   47 1
@<TRIPOS>MOLECULE
CHEMBL583895
   42    45     0     0     0
SMALL
USER_CHARGES

@<TRIPOS>ATOM
      1 C1         -0.0376    1.5550    0.0141 C.3       1 <0>        -0.1640
      2 C2         -0.0083    0.0254   -0.0004 C.3       1 <0>         0.1939
      3 H1          0.5225   -0.3362    0.8803 H         1 <0>         0.0980
      4 C3          0.6975   -0.4518   -1.2435 C.ar      1 <0>        -0.1041
      5 C4          0.0250   -0.4821   -2.4510 C.ar      1 <0>        -0.0822
      6 C5          0.6714   -0.9190   -3.5917 C.ar      1 <0>        -0.1486
      7 C6          1.9929   -1.3266   -3.5248 C.ar      1 <0>         0.1016
      8 C7          2.6654   -1.2958   -2.3149 C.ar      1 <0>        -0.1494
      9 C8          2.0186   -0.8535   -1.1765 C.ar      1 <0>        -0.0761
     10 F1          2.6256   -1.7543   -4.6392 F         1 <0>        -0.1375
     11 N1         -1.3798   -0.4895    0.0105 N.pl3     1 <0>        -0.7094
     12 C9         -2.0519   -0.6462    1.2131 C.ar      1 <0>         0.4426
     13 C10        -1.4353   -0.3122    2.4145 C.ar      1 <0>        -0.2912
     14 C11        -2.1561   -0.4885    3.5980 C.ar      1 <0>         0.3035
     15 N2         -3.4020   -0.9680    3.5307 N.ar      1 <0>        -0.5805
     16 C12        -3.9462   -1.2710    2.3712 C.ar      1 <0>         0.3467
     17 N3         -3.2991   -1.1135    1.2338 N.ar      1 <0>        -0.5925
     18 C13        -1.5518   -0.1512    4.9015 C.2       1 <0>        -0.2535
     19 C14        -2.1925   -0.1842    6.1542 C.2       1 <0>         0.4262
     20 N4         -1.3298    0.1809    7.0768 N.2       1 <0>        -0.3721
     21 N5         -0.1000    0.4654    6.4732 N.pl3     1 <0>        -0.2933
     22 C15        -0.2285    0.2568    5.1263 C.2       1 <0>         0.3166
     23 N6          0.8060    0.4518    4.3041 N.2       1 <0>        -0.4746
     24 C16         1.9710    0.8450    4.7684 C.2       1 <0>         0.1937
     25 C17         2.1433    1.0660    6.1403 C.2       1 <0>        -0.2380
     26 C18         1.0957    0.8772    6.9823 C.2       1 <0>         0.1835
     27 N7         -3.5207   -0.5432    6.3791 N.pl3     1 <0>        -0.8151
     28 H2          0.9828    1.9381    0.0060 H         1 <0>         0.0716
     29 H3         -0.5684    1.9166   -0.8665 H         1 <0>         0.0620
     30 H4         -0.5481    1.9001    0.9132 H         1 <0>         0.0661
     31 H5         -1.0059   -0.1644   -2.5028 H         1 <0>         0.1320
     32 H6          0.1457   -0.9429   -4.5348 H         1 <0>         0.1384
     33 H7          3.6962   -1.6138   -2.2615 H         1 <0>         0.1391
     34 H8          2.5443   -0.8252   -0.2335 H         1 <0>         0.1369
     35 H9         -1.8177   -0.7207   -0.8235 H         1 <0>         0.4056
     36 H10        -0.4264    0.0727    2.4317 H         1 <0>         0.1569
     37 H11        -4.9547   -1.6568    2.3509 H         1 <0>         0.1944
     38 H12         2.7975    0.9977    4.0901 H         1 <0>         0.1839
     39 H13         3.0996    1.3892    6.5243 H         1 <0>         0.1715
     40 H14         1.2108    1.0412    8.0436 H         1 <0>         0.1837
     41 H15        -4.0656   -0.8696    5.6461 H         1 <0>         0.4289
     42 H16        -3.8998   -0.4666    7.2687 H         1 <0>         0.4049
@<TRIPOS>BOND
     1    1    2 1
     2    1   28 1
     3    1   29 1
     4    1   30 1
     5    2    3 1
     6    2    4 1
     7    2   11 1
     8    4    9 ar
     9    4    5 ar
    10    5    6 ar
    11    5   31 1
    12    6    7 ar
    13    6   32 1
    14    7    8 ar
    15    7   10 1
    16    8    9 ar
    17    8   33 1
    18    9   34 1
    19   11   12 1
    20   11   35 1
    21   12   17 ar
    22   12   13 ar
    23   13   14 ar
    24   13   36 1
    25   14   15 ar
    26   14   18 1
    27   15   16 ar
    28   16   17 ar
    29   16   37 1
    30   18   22 2
    31   18   19 1
    32   19   20 2
    33   19   27 1
    34   20   21 1
    35   21   26 1
    36   21   22 1
    37   22   23 1
    38   23   24 2
    39   24   25 1
    40   24   38 1
    41   25   26 2
    42   25   39 1
    43   26   40 1
    44   27   41 1
    45   27   42 1
@<TRIPOS>MOLECULE
CHEMBL595397
   37    40     0     0     0
SMALL
USER_CHARGES

@<TRIPOS>ATOM
      1 C1         -0.0173    1.4248    0.0099 C.3       1 <0>         0.0346
      2 O1          0.0021   -0.0041    0.0020 O.3       1 <0>        -0.3569
      3 C2          0.5984   -0.5997   -1.0427 C.2       1 <0>         0.4638
      4 O2          1.0877    0.0699   -1.9214 O.2       1 <0>        -0.4948
      5 C3          0.6575   -2.1036   -1.1196 C.3       1 <0>        -0.1241
      6 C4          1.3848   -2.5205   -2.3995 C.3       1 <0>         0.2652
      7 C5          1.3311   -4.0065   -2.5398 C.2       1 <0>        -0.1858
      8 C6          0.3985   -4.7693   -3.1244 C.2       1 <0>         0.0748
      9 N1          0.7530   -6.0944   -3.0292 N.pl3     1 <0>        -0.5781
     10 H1          0.2220   -6.8375   -3.3558 H         1 <0>         0.4234
     11 C7          1.9598   -6.2093   -2.4089 C.ar      1 <0>         0.2867
     12 C8          2.3512   -4.9058   -2.0110 C.ar      1 <0>        -0.1316
     13 C9          3.5374   -4.6912   -1.2988 C.ar      1 <0>         0.0675
     14 C10         4.3402   -5.8269   -1.1200 C.ar      1 <0>        -0.2011
     15 C11         3.9064   -7.0605   -1.5640 C.ar      1 <0>         0.1290
     16 N2          2.7467   -7.2552   -2.1724 N.ar      1 <0>        -0.4884
     17 C12         3.9187   -3.4134   -0.6763 C.ar      1 <0>        -0.0840
     18 C13         4.6773   -3.4457    0.4989 C.ar      1 <0>        -0.0879
     19 C14         5.0777   -2.2811    1.1126 C.ar      1 <0>        -0.1356
     20 C15         4.7354   -1.0538    0.5706 C.ar      1 <0>        -0.0931
     21 C16         3.9818   -0.9960   -0.5829 C.ar      1 <0>        -0.1451
     22 C17         3.5574   -2.1586   -1.2125 C.ar      1 <0>         0.2082
     23 N3          2.7653   -2.0849   -2.3332 N.pl3     1 <0>        -0.7625
     24 H2          1.0053    1.8021    0.0021 H         1 <0>         0.0599
     25 H3         -0.5445    1.7859   -0.8732 H         1 <0>         0.0601
     26 H4         -0.5275    1.7763    0.9067 H         1 <0>         0.1009
     27 H5          1.1948   -2.4908   -0.2539 H         1 <0>         0.1064
     28 H6         -0.3550   -2.5070   -1.1292 H         1 <0>         0.1138
     29 H7          0.8997   -2.0582   -3.2592 H         1 <0>         0.1016
     30 H8         -0.4981   -4.3991   -3.5992 H         1 <0>         0.1809
     31 H9          5.3002   -5.7367   -0.6335 H         1 <0>         0.1372
     32 H10         4.5493   -7.9140   -1.4068 H         1 <0>         0.1578
     33 H11         4.9518   -4.3970    0.9301 H         1 <0>         0.1249
     34 H12         5.6614   -2.3245    2.0203 H         1 <0>         0.1257
     35 H13         5.0582   -0.1421    1.0512 H         1 <0>         0.1245
     36 H14         3.7185   -0.0357   -1.0011 H         1 <0>         0.1248
     37 H15         3.1590   -1.7143   -3.1385 H         1 <0>         0.3971
@<TRIPOS>BOND
     1    1    2 1
     2    1   24 1
     3    1   25 1
     4    1   26 1
     5    2    3 1
     6    3    4 2
     7    3    5 1
     8    5    6 1
     9    5   27 1
    10    5   28 1
    11    6   23 1
    12    6    7 1
    13    6   29 1
    14    7   12 1
    15    7    8 2
    16    8    9 1
    17    8   30 1
    18    9   10 1
    19    9   11 1
    20   11   16 ar
    21   11   12 ar
    22   12   13 ar
    23   13   14 ar
    24   13   17 1
    25   14   15 ar
    26   14   31 1
    27   15   16 ar
    28   15   32 1
    29   17   22 ar
    30   17   18 ar
    31   18   19 ar
    32   18   33 1
    33   19   20 ar
    34   19   34 1
    35   20   21 ar
    36   20   35 1
    37   21   22 ar
    38   21   36 1
    39   22   23 1
    40   23   37 1
@<TRIPOS>MOLECULE
CHEMBL595397__1
   37    40     0     0     0
SMALL
USER_CHARGES

@<TRIPOS>ATOM
      1 C1         -0.0173    1.4248    0.0099 C.3       1 <0>         0.0346
      2 O1          0.0021   -0.0041    0.0020 O.3       1 <0>        -0.3569
      3 C2          0.5984   -0.5997   -1.0427 C.2       1 <0>         0.4638
      4 O2          1.0877    0.0699   -1.9214 O.2       1 <0>        -0.4948
      5 C3          0.6575   -2.1036   -1.1196 C.3       1 <0>        -0.1241
      6 C4          1.3848   -2.5205   -2.3995 C.3       1 <0>         0.2653
      7 C5          1.5562   -4.0041   -2.4127 C.2       1 <0>        -0.1858
      8 C6          2.5503   -4.7468   -1.9090 C.2       1 <0>         0.0748
      9 N1          2.3068   -6.0781   -2.1517 N.pl3     1 <0>        -0.5781
     10 H1          2.8723   -6.8098   -1.8589 H         1 <0>         0.4234
     11 C7          1.1545   -6.2178   -2.8637 C.ar      1 <0>         0.2867
     12 C8          0.5910   -4.9242   -3.0051 C.ar      1 <0>        -0.1316
     13 C9         -0.6344   -4.7348   -3.6551 C.ar      1 <0>         0.0675
     14 C10        -1.1840   -5.8847   -4.2401 C.ar      1 <0>        -0.2011
     15 C11        -0.5601   -7.1072   -4.0872 C.ar      1 <0>         0.1290
     16 N2          0.5624   -7.2781   -3.4061 N.ar      1 <0>        -0.4884
     17 C12        -1.3847   -3.4688   -3.6716 C.ar      1 <0>        -0.0840
     18 C13        -2.7821   -3.5237   -3.7142 C.ar      1 <0>        -0.0879
     19 C14        -3.5327   -2.3712   -3.7511 C.ar      1 <0>        -0.1356
     20 C15        -2.9114   -1.1338   -3.7488 C.ar      1 <0>        -0.0931
     21 C16        -1.5356   -1.0537   -3.6992 C.ar      1 <0>        -0.1451
     22 C17        -0.7589   -2.2038   -3.6504 C.ar      1 <0>         0.2081
     23 N3          0.6086   -2.1075   -3.5513 N.pl3     1 <0>        -0.7626
     24 H2          1.0053    1.8021    0.0021 H         1 <0>         0.0601
     25 H3         -0.5445    1.7859   -0.8732 H         1 <0>         0.0599
     26 H4         -0.5275    1.7763    0.9067 H         1 <0>         0.1009
     27 H5          1.1948   -2.4908   -0.2539 H         1 <0>         0.1138
     28 H6         -0.3550   -2.5070   -1.1292 H         1 <0>         0.1064
     29 H7          2.3640   -2.0429   -2.4321 H         1 <0>         0.1016
     30 H8          3.4140   -4.3581   -1.3900 H         1 <0>         0.1810
     31 H9         -2.0977   -5.8141   -4.8115 H         1 <0>         0.1372
     32 H10        -1.0130   -7.9721   -4.5489 H         1 <0>         0.1578
     33 H11        -3.2780   -4.4831   -3.7185 H         1 <0>         0.1249
     34 H12        -4.6106   -2.4319   -3.7823 H         1 <0>         0.1257
     35 H13        -3.5040   -0.2316   -3.7856 H         1 <0>         0.1246
     36 H14        -1.0567   -0.0856   -3.6989 H         1 <0>         0.1248
     37 H15         1.0891   -1.7359   -4.3076 H         1 <0>         0.3971
@<TRIPOS>BOND
     1    1    2 1
     2    1   24 1
     3    1   25 1
     4    1   26 1
     5    2    3 1
     6    3    4 2
     7    3    5 1
     8    5    6 1
     9    5   27 1
    10    5   28 1
    11    6   23 1
    12    6    7 1
    13    6   29 1
    14    7   12 1
    15    7    8 2
    16    8    9 1
    17    8   30 1
    18    9   10 1
    19    9   11 1
    20   11   16 ar
    21   11   12 ar
    22   12   13 ar
    23   13   14 ar
    24   13   17 1
    25   14   15 ar
    26   14   31 1
    27   15   16 ar
    28   15   32 1
    29   17   22 ar
    30   17   18 ar
    31   18   19 ar
    32   18   33 1
    33   19   20 ar
    34   19   34 1
    35   20   21 ar
    36   20   35 1
    37   21   22 ar
    38   21   36 1
    39   22   23 1
    40   23   37 1
@<TRIPOS>MOLECULE
CHEMBL392998
   64    69     0     0     0
SMALL
USER_CHARGES

@<TRIPOS>ATOM
      1 C1         -0.0187    1.5258    0.0104 C.3       1 <0>        -0.1614
      2 C2          0.0021   -0.0041    0.0020 C.3       1 <0>         0.1908
      3 H1         -1.0205   -0.3814    0.0098 H         1 <0>         0.0975
      4 C3          0.7074   -0.4901   -1.2379 C.ar      1 <0>        -0.1013
      5 C4          2.0889   -0.5108   -1.2839 C.ar      1 <0>        -0.1125
      6 C5          2.7359   -0.9566   -2.4212 C.ar      1 <0>        -0.1114
      7 C6          2.0015   -1.3821   -3.5123 C.ar      1 <0>        -0.1141
      8 C7          0.6201   -1.3622   -3.4659 C.ar      1 <0>        -0.1155
      9 C8         -0.0269   -0.9205   -2.3270 C.ar      1 <0>        -0.1057
     10 N1          0.7106   -0.4894    1.1889 N.pl3     1 <0>        -0.6811
     11 C9          0.0350   -0.6370    2.3841 C.ar      1 <0>         0.5337
     12 C10         0.7019   -1.0970    3.5372 C.ar      1 <0>        -0.2339
     13 C11         2.0278   -1.4902    3.8203 C.2       1 <0>        -0.1032
     14 C12         2.0802   -1.8436    5.1317 C.2       1 <0>         0.1327
     15 N2          0.8245   -1.6865    5.6920 N.pl3     1 <0>        -0.4122
     16 C13        -0.0346   -1.2298    4.7315 C.ar      1 <0>         0.3334
     17 N3         -1.3284   -0.9159    4.7241 N.ar      1 <0>        -0.5482
     18 C14        -1.9128   -0.4878    3.6189 C.ar      1 <0>         0.5373
     19 N4         -1.2570   -0.3436    2.4750 N.ar      1 <0>        -0.6061
     20 N5         -3.2676   -0.1718    3.6578 N.pl3     1 <0>        -0.3378
     21 C15        -4.0862   -0.2513    4.7456 C.cat     1 <0>         0.4187
     22 N6         -5.2925    0.1202    4.4256 N.pl3     1 <0>        -0.4906
     23 C16        -5.3333    0.4625    3.1169 C.ar      1 <0>         0.0864
     24 C17        -4.0335    0.2870    2.6025 C.ar      1 <0>         0.0312
     25 C18        -3.7937    0.5758    1.2698 C.ar      1 <0>         0.1922
     26 N7         -4.7711    1.0116    0.4989 N.ar      1 <0>        -0.4439
     27 C19        -6.0008    1.1902    0.9502 C.ar      1 <0>         0.1302
     28 C20        -6.3299    0.9227    2.2496 C.ar      1 <0>        -0.1330
     29 C21         0.4732   -1.9643    7.0869 C.3       1 <0>         0.0677
     30 C22         3.2786   -2.3174    5.8411 C.2       1 <0>         0.5374
     31 O1          3.2047   -2.6410    7.1531 O.3       1 <0>        -0.6992
     32 N8          4.4122   -2.4255    5.2058 N.2       1 <0>        -1.0460
     33 S1          5.7613   -2.9588    6.0044 S.o2      1 <0>         2.6628
     34 O2          6.0815   -1.9657    6.9690 O.2       1 <0>        -0.9968
     35 O3          5.5152   -4.3129    6.3581 O.2       1 <0>        -0.9969
     36 C23         7.0837   -2.9748    4.8401 C.ar      1 <0>        -0.6346
     37 C24         7.3267   -4.1074    4.0857 C.ar      1 <0>        -0.0227
     38 C25         8.3642   -4.1200    3.1722 C.ar      1 <0>        -0.1453
     39 C26         9.1583   -2.9998    3.0128 C.ar      1 <0>        -0.0776
     40 C27         8.9148   -1.8669    3.7666 C.ar      1 <0>        -0.1454
     41 C28         7.8746   -1.8529    4.6770 C.ar      1 <0>        -0.0228
     42 H2          1.0039    1.9031    0.0027 H         1 <0>         0.0644
     43 H3         -0.5459    1.8868   -0.8726 H         1 <0>         0.0734
     44 H4         -0.5289    1.8773    0.9072 H         1 <0>         0.0631
     45 H5          2.6626   -0.1783   -0.4315 H         1 <0>         0.1224
     46 H6          3.8152   -0.9721   -2.4575 H         1 <0>         0.1267
     47 H7          2.5070   -1.7297   -4.4012 H         1 <0>         0.1244
     48 H8          0.0463   -1.6944   -4.3185 H         1 <0>         0.1250
     49 H9         -1.1062   -0.9085   -2.2894 H         1 <0>         0.1240
     50 H10         1.6544   -0.7070    1.1351 H         1 <0>         0.4225
     51 H11         2.8511   -1.5074    3.1215 H         1 <0>         0.1696
     52 H12        -3.7788   -0.5755    5.7289 H         1 <0>         0.2777
     53 H13        -2.8030    0.4442    0.8604 H         1 <0>         0.1954
     54 H14        -6.7638    1.5493    0.2755 H         1 <0>         0.1872
     55 H15        -7.3389    1.0751    2.6034 H         1 <0>         0.1659
     56 H16         0.6192   -1.0645    7.6845 H         1 <0>         0.0785
     57 H17        -0.5706   -2.2731    7.1441 H         1 <0>         0.0780
     58 H18         1.1096   -2.7621    7.4699 H         1 <0>         0.1250
     59 H19         6.7063   -4.9826    4.2102 H         1 <0>         0.1370
     60 H20         8.5545   -5.0051    2.5833 H         1 <0>         0.1280
     61 H21         9.9693   -3.0098    2.2997 H         1 <0>         0.1255
     62 H22         9.5354   -0.9918    3.6423 H         1 <0>         0.1280
     63 H23         7.6820   -0.9665    5.2632 H         1 <0>         0.1370
     64 H24        -6.0479    0.1474    5.0335 H         1 <0>         0.4685
@<TRIPOS>BOND
     1    1    2 1
     2    1   42 1
     3    1   43 1
     4    1   44 1
     5    2    3 1
     6    2    4 1
     7    2   10 1
     8    4    9 ar
     9    4    5 ar
    10    5    6 ar
    11    5   45 1
    12    6    7 ar
    13    6   46 1
    14    7    8 ar
    15    7   47 1
    16    8    9 ar
    17    8   48 1
    18    9   49 1
    19   10   11 1
    20   10   50 1
    21   11   19 ar
    22   11   12 ar
    23   12   16 ar
    24   12   13 1
    25   13   14 2
    26   13   51 1
    27   14   15 1
    28   14   30 1
    29   15   16 1
    30   15   29 1
    31   16   17 ar
    32   17   18 ar
    33   18   19 ar
    34   18   20 1
    35   20   24 1
    36   20   21 1
    37   21   22 2
    38   21   52 1
    39   22   23 1
    40   22   64 1
    41   23   28 ar
    42   23   24 ar
    43   24   25 ar
    44   25   26 ar
    45   25   53 1
    46   26   27 ar
    47   27   28 ar
    48   27   54 1
    49   28   55 1
    50   29   56 1
    51   29   57 1
    52   29   58 1
    53   30   31 1
    54   30   32 2
    55   32   33 1
    56   33   34 2
    57   33   35 2
    58   33   36 1
    59   36   41 ar
    60   36   37 ar
    61   37   38 ar
    62   37   59 1
    63   38   39 ar
    64   38   60 1
    65   39   40 ar
    66   39   61 1
    67   40   41 ar
    68   40   62 1
    69   41   63 1
@<TRIPOS>MOLECULE
CHEMBL482189
   45    47     0     0     0
SMALL
USER_CHARGES

@<TRIPOS>ATOM
      1 C1          1.2025   -2.4809   -0.2259 C.3       1 <0>        -0.1934
      2 C2          0.1865   -1.7817   -1.1314 C.3       1 <0>         0.1740
      3 C3          0.3465   -2.2903   -2.5654 C.3       1 <0>        -0.1813
      4 C4         -1.2297   -2.0845   -0.6379 C.3       1 <0>        -0.1517
      5 N1          0.4166   -0.3352   -1.0977 N.pl3     1 <0>        -1.1050
      6 S1          1.9329    0.2687   -1.3774 S.o2      1 <0>         2.6906
      7 O1          2.4386   -0.4146   -2.5161 O.2       1 <0>        -0.9422
      8 O2          1.8221    1.6845   -1.3255 O.2       1 <0>        -0.9488
      9 C5          2.9430   -0.2076   -0.0145 C.ar      1 <0>        -0.6580
     10 C6          2.8849    0.5067    1.1690 C.ar      1 <0>        -0.0059
     11 C7          3.6729    0.1386    2.2402 C.ar      1 <0>        -0.1118
     12 C8          4.5294   -0.9556    2.1288 C.ar      1 <0>         0.0046
     13 C9          4.5842   -1.6724    0.9335 C.ar      1 <0>        -0.0506
     14 C10         3.7865   -1.2974   -0.1302 C.ar      1 <0>        -0.0019
     15 Cl1         5.6474   -3.0367    0.7850 Cl        1 <0>        -0.0514
     16 C11         5.3790   -1.3558    3.2763 C.ar      1 <0>        -0.0913
     17 C12         6.1554   -0.3829    3.9322 C.ar      1 <0>         0.0212
     18 C13         6.9473   -0.6967    4.9844 C.ar      1 <0>        -0.1496
     19 C14         7.0067   -2.0305    5.4476 C.ar      1 <0>         0.2391
     20 C15         6.1980   -3.0542    4.7675 C.ar      1 <0>        -0.2342
     21 C16         5.3888   -2.6737    3.6838 C.ar      1 <0>         0.0284
     22 C17         6.4520   -4.2557    5.4272 C.2       1 <0>         0.5326
     23 N2          7.3276   -4.0009    6.4137 N.pl3     1 <0>        -0.4343
     24 N3          7.6600   -2.6420    6.4184 N.pl3     1 <0>        -0.4209
     25 H1          7.6779   -4.6618    7.0313 H         1 <0>         0.4707
     26 N4          5.9005   -5.4892    5.1213 N.pl3     1 <0>        -0.7804
     27 H2          2.1900   -2.4356   -0.6851 H         1 <0>         0.0666
     28 H3          1.2291   -1.9824    0.7431 H         1 <0>         0.0678
     29 H4          0.9121   -3.5228   -0.0907 H         1 <0>         0.0836
     30 H5         -0.0195   -3.3149   -2.6305 H         1 <0>         0.0702
     31 H6         -0.2264   -1.6561   -3.2419 H         1 <0>         0.0674
     32 H7          1.3996   -2.2622   -2.8456 H         1 <0>         0.0846
     33 H8         -1.3437   -1.7221    0.3838 H         1 <0>         0.0636
     34 H9         -1.9535   -1.5863   -1.2829 H         1 <0>         0.0682
     35 H10        -1.4009   -3.1607   -0.6630 H         1 <0>         0.0746
     36 H11        -0.3193    0.2687   -0.9115 H         1 <0>         0.4221
     37 H12         2.2214    1.3546    1.2545 H         1 <0>         0.1520
     38 H13         3.6266    0.6975    3.1632 H         1 <0>         0.1486
     39 H14         3.8246   -1.8538   -1.0551 H         1 <0>         0.1617
     40 H15         6.1190    0.6399    3.5874 H         1 <0>         0.1586
     41 H16         7.5329    0.0708    5.4686 H         1 <0>         0.1609
     42 H17         4.7830   -3.4068    3.1721 H         1 <0>         0.1496
     43 H18         5.2732   -5.5711    4.3860 H         1 <0>         0.4465
     44 H19         6.1417   -6.2710    5.6425 H         1 <0>         0.4302
     45 H20         8.2739   -2.2163    7.0372 H         1 <0>         0.4746
@<TRIPOS>BOND
     1    1    2 1
     2    1   27 1
     3    1   28 1
     4    1   29 1
     5    2    3 1
     6    2    4 1
     7    2    5 1
     8    3   30 1
     9    3   31 1
    10    3   32 1
    11    4   33 1
    12    4   34 1
    13    4   35 1
    14    5    6 1
    15    5   36 1
    16    6    7 2
    17    6    8 2
    18    6    9 1
    19    9   14 ar
    20    9   10 ar
    21   10   11 ar
    22   10   37 1
    23   11   12 ar
    24   11   38 1
    25   12   13 ar
    26   12   16 1
    27   13   14 ar
    28   13   15 1
    29   14   39 1
    30   16   21 ar
    31   16   17 ar
    32   17   18 ar
    33   17   40 1
    34   18   19 ar
    35   18   41 1
    36   19   20 ar
    37   19   24 2
    38   20   21 ar
    39   20   22 2
    40   21   42 1
    41   22   26 1
    42   22   23 1
    43   23   25 1
    44   23   24 1
    45   24   45 1
    46   26   43 1
    47   26   44 1
@<TRIPOS>MOLECULE
CHEMBL482189__1
   44    46     0     0     0
SMALL
USER_CHARGES

@<TRIPOS>ATOM
      1 C1          1.2025   -2.4809   -0.2259 C.3       1 <0>        -0.1945
      2 C2          0.1865   -1.7817   -1.1314 C.3       1 <0>         0.1750
      3 C3          0.3465   -2.2903   -2.5654 C.3       1 <0>        -0.1794
      4 C4         -1.2297   -2.0845   -0.6379 C.3       1 <0>        -0.1504
      5 N1          0.4166   -0.3352   -1.0977 N.pl3     1 <0>        -1.1075
      6 S1          1.9329    0.2687   -1.3774 S.o2      1 <0>         2.6953
      7 O1          2.4386   -0.4146   -2.5161 O.2       1 <0>        -0.9497
      8 O2          1.8221    1.6845   -1.3255 O.2       1 <0>        -0.9564
      9 C5          2.9430   -0.2076   -0.0145 C.ar      1 <0>        -0.6753
     10 C6          2.8849    0.5067    1.1690 C.ar      1 <0>        -0.0088
     11 C7          3.6730    0.1386    2.2402 C.ar      1 <0>        -0.1237
     12 C8          4.5294   -0.9556    2.1288 C.ar      1 <0>         0.0448
     13 C9          4.5842   -1.6724    0.9335 C.ar      1 <0>        -0.0593
     14 C10         3.7865   -1.2974   -0.1302 C.ar      1 <0>        -0.0047
     15 Cl1         5.6474   -3.0367    0.7850 Cl        1 <0>        -0.0532
     16 C11         5.3790   -1.3558    3.2763 C.ar      1 <0>        -0.1431
     17 C12         6.1554   -0.3829    3.9322 C.ar      1 <0>        -0.0410
     18 C13         6.9473   -0.6967    4.9844 C.ar      1 <0>        -0.1210
     19 C14         7.0067   -2.0305    5.4476 C.ar      1 <0>         0.1487
     20 C15         6.1980   -3.0542    4.7675 C.ar      1 <0>        -0.2701
     21 C16         5.3888   -2.6737    3.6838 C.ar      1 <0>         0.0274
     22 C17         6.4520   -4.2557    5.4272 C.2       1 <0>         0.4102
     23 N2          7.3276   -4.0009    6.4137 N.pl3     1 <0>        -0.4619
     24 N3          7.6600   -2.6420    6.4184 N.2       1 <0>        -0.3189
     25 H1          7.6779   -4.6618    7.0313 H         1 <0>         0.4406
     26 N4          5.9005   -5.4892    5.1213 N.pl3     1 <0>        -0.8369
     27 H2          2.1900   -2.4356   -0.6851 H         1 <0>         0.0694
     28 H3          1.2291   -1.9824    0.7431 H         1 <0>         0.0703
     29 H4          0.9121   -3.5228   -0.0907 H         1 <0>         0.0812
     30 H5         -0.0195   -3.3149   -2.6305 H         1 <0>         0.0681
     31 H6         -0.2264   -1.6561   -3.2419 H         1 <0>         0.0645
     32 H7          1.3996   -2.2622   -2.8456 H         1 <0>         0.0851
     33 H8         -1.3437   -1.7221    0.3838 H         1 <0>         0.0638
     34 H9         -1.9535   -1.5863   -1.2829 H         1 <0>         0.0653
     35 H10        -1.4009   -3.1607   -0.6630 H         1 <0>         0.0730
     36 H11        -0.3193    0.2687   -0.9115 H         1 <0>         0.4194
     37 H12         2.2214    1.3546    1.2545 H         1 <0>         0.1442
     38 H13         3.6266    0.6975    3.1632 H         1 <0>         0.1446
     39 H14         3.8246   -1.8538   -1.0551 H         1 <0>         0.1544
     40 H15         6.1190    0.6399    3.5874 H         1 <0>         0.1281
     41 H16         7.5329    0.0708    5.4686 H         1 <0>         0.1321
     42 H17         4.7830   -3.4068    3.1721 H         1 <0>         0.1202
     43 H18         5.2732   -5.5711    4.3860 H         1 <0>         0.4221
     44 H19         6.1417   -6.2710    5.6425 H         1 <0>         0.4080
@<TRIPOS>BOND
     1    1    2 1
     2    1   27 1
     3    1   28 1
     4    1   29 1
     5    2    3 1
     6    2    4 1
     7    2    5 1
     8    3   30 1
     9    3   31 1
    10    3   32 1
    11    4   33 1
    12    4   34 1
    13    4   35 1
    14    5    6 1
    15    5   36 1
    16    6    7 2
    17    6    8 2
    18    6    9 1
    19    9   14 ar
    20    9   10 ar
    21   10   11 ar
    22   10   37 1
    23   11   12 ar
    24   11   38 1
    25   12   13 ar
    26   12   16 1
    27   13   14 ar
    28   13   15 1
    29   14   39 1
    30   16   21 ar
    31   16   17 ar
    32   17   18 ar
    33   17   40 1
    34   18   19 ar
    35   18   41 1
    36   19   20 ar
    37   19   24 2
    38   20   21 ar
    39   20   22 2
    40   21   42 1
    41   22   26 1
    42   22   23 1
    43   23   25 1
    44   23   24 1
    45   26   43 1
    46   26   44 1
@<TRIPOS>MOLECULE
CHEMBL482189__2
   44    46     0     0     0
SMALL
USER_CHARGES

@<TRIPOS>ATOM
      1 C1          1.2024   -2.4807   -0.2258 C.3       1 <0>        -0.1947
      2 C2          0.1865   -1.7814   -1.1312 C.3       1 <0>         0.1747
      3 C3          0.3464   -2.2901   -2.5653 C.3       1 <0>        -0.1795
      4 C4         -1.2298   -2.0841   -0.6376 C.3       1 <0>        -0.1505
      5 N1          0.4167   -0.3350   -1.0975 N.pl3     1 <0>        -1.1070
      6 S1          1.9331    0.2688   -1.3774 S.o2      1 <0>         2.6952
      7 O1          2.4385   -0.4146   -2.5161 O.2       1 <0>        -0.9485
      8 O2          1.8224    1.6845   -1.3255 O.2       1 <0>        -0.9557
      9 C5          2.9432   -0.2077   -0.0146 C.ar      1 <0>        -0.6720
     10 C6          2.8854    0.5065    1.1689 C.ar      1 <0>        -0.0091
     11 C7          3.6740    0.1384    2.2398 C.ar      1 <0>        -0.1209
     12 C8          4.5303   -0.9552    2.1281 C.ar      1 <0>         0.0379
     13 C9          4.5850   -1.6718    0.9333 C.ar      1 <0>        -0.0565
     14 C10         3.7866   -1.2974   -0.1303 C.ar      1 <0>        -0.0046
     15 Cl1         5.6486   -3.0357    0.7847 Cl        1 <0>        -0.0495
     16 C11         5.3809   -1.3554    3.2761 C.ar      1 <0>        -0.1251
     17 C12         6.1580   -0.3960    3.9369 C.ar      1 <0>        -0.0368
     18 C13         6.9449   -0.7459    4.9937 C.ar      1 <0>        -0.1505
     19 C14         6.9846   -2.0697    5.4294 C.ar      1 <0>         0.1652
     20 C15         6.2075   -3.0438    4.7730 C.ar      1 <0>        -0.1988
     21 C16         5.3995   -2.6768    3.6948 C.ar      1 <0>         0.0057
     22 C17         6.4694   -4.3100    5.4603 C.2       1 <0>         0.3671
     23 N2          7.3209   -4.0697    6.4214 N.2       1 <0>        -0.3199
     24 N3          7.6591   -2.7130    6.4344 N.pl3     1 <0>        -0.5033
     25 H1          8.2741   -2.2933    7.0562 H         1 <0>         0.4428
     26 N4          5.9093   -5.5509    5.1454 N.pl3     1 <0>        -0.8323
     27 H2          2.1899   -2.4356   -0.6850 H         1 <0>         0.0689
     28 H3          1.2291   -1.9823    0.7432 H         1 <0>         0.0700
     29 H4          0.9119   -3.5226   -0.0905 H         1 <0>         0.0822
     30 H5         -0.0198   -3.3147   -2.6303 H         1 <0>         0.0686
     31 H6         -0.2266   -1.6559   -3.2417 H         1 <0>         0.0647
     32 H7          1.3994   -2.2620   -2.8454 H         1 <0>         0.0851
     33 H8         -1.3437   -1.7217    0.3840 H         1 <0>         0.0638
     34 H9         -1.9535   -1.5859   -1.2827 H         1 <0>         0.0655
     35 H10        -1.4010   -3.1602   -0.6627 H         1 <0>         0.0735
     36 H11        -0.3191    0.2690   -0.9113 H         1 <0>         0.4196
     37 H12         2.2218    1.3543    1.2547 H         1 <0>         0.1455
     38 H13         3.6279    0.6972    3.1629 H         1 <0>         0.1448
     39 H14         3.8242   -1.8542   -1.0550 H         1 <0>         0.1561
     40 H15         6.1339    0.6316    3.6057 H         1 <0>         0.1342
     41 H16         7.5393    0.0040    5.4944 H         1 <0>         0.1330
     42 H17         4.7973   -3.4169    3.1889 H         1 <0>         0.1282
     43 H18         5.2825   -5.6273    4.4090 H         1 <0>         0.4128
     44 H19         6.1474   -6.3359    5.6631 H         1 <0>         0.4098
@<TRIPOS>BOND
     1    1    2 1
     2    1   27 1
     3    1   28 1
     4    1   29 1
     5    2    3 1
     6    2    4 1
     7    2    5 1
     8    3   30 1
     9    3   31 1
    10    3   32 1
    11    4   33 1
    12    4   34 1
    13    4   35 1
    14    5    6 1
    15    5   36 1
    16    6    7 2
    17    6    8 2
    18    6    9 1
    19    9   14 ar
    20    9   10 ar
    21   10   11 ar
    22   10   37 1
    23   11   12 ar
    24   11   38 1
    25   12   13 ar
    26   12   16 1
    27   13   14 ar
    28   13   15 1
    29   14   39 1
    30   16   21 ar
    31   16   17 ar
    32   17   18 ar
    33   17   40 1
    34   18   19 ar
    35   18   41 1
    36   19   24 1
    37   19   20 ar
    38   20   21 ar
    39   20   22 1
    40   21   42 1
    41   22   23 2
    42   22   26 1
    43   23   24 1
    44   24   25 1
    45   26   43 1
    46   26   44 1
@<TRIPOS>MOLECULE
CHEMBL570229
   43    47     0     0     0
SMALL
USER_CHARGES

@<TRIPOS>ATOM
      1 C1         -0.0139    1.3288    0.0242 C.ar      1 <0>        -0.1119
      2 C2          1.1698    2.0430    0.0138 C.ar      1 <0>        -0.1235
      3 C3          2.3780    1.3742   -0.0032 C.ar      1 <0>        -0.0816
      4 C4          2.4082   -0.0104   -0.0100 C.ar      1 <0>        -0.1140
      5 C5          1.2248   -0.7244    0.0004 C.ar      1 <0>        -0.0903
      6 C6          0.0142   -0.0519    0.0175 C.ar      1 <0>        -0.1104
      7 C7          1.5225   -2.2085   -0.0105 C.3       1 <0>        -0.0806
      8 C8          2.9920   -2.3224   -0.4685 C.3       1 <0>        -0.1239
      9 C9          3.5821   -0.9658   -0.0284 C.3       1 <0>         0.1932
     10 H1          4.0183   -1.0482    0.9671 H         1 <0>         0.1010
     11 N1          4.5903   -0.5139   -0.9904 N.pl3     1 <0>        -0.7046
     12 C10         5.5593    0.3986   -0.6020 C.ar      1 <0>         0.4412
     13 C11         5.5868    0.8868    0.7003 C.ar      1 <0>        -0.2915
     14 C12         6.5840    1.8039    1.0407 C.ar      1 <0>         0.3030
     15 N2          7.4672    2.1743    0.1083 N.ar      1 <0>        -0.5808
     16 C13         7.4035    1.6864   -1.1125 C.ar      1 <0>         0.3456
     17 N3          6.4804    0.8158   -1.4691 N.ar      1 <0>        -0.5925
     18 C14         6.6608    2.3553    2.4075 C.2       1 <0>        -0.2543
     19 C15         7.6643    3.2035    2.9121 C.2       1 <0>         0.4261
     20 N4          7.3874    3.4810    4.1672 N.2       1 <0>        -0.3727
     21 N5          6.2028    2.8327    4.5337 N.pl3     1 <0>        -0.2933
     22 C16         5.7443    2.1377    3.4471 C.2       1 <0>         0.3171
     23 N6          4.6164    1.4257    3.5191 N.2       1 <0>        -0.4713
     24 C17         3.9195    1.3780    4.6324 C.2       1 <0>         0.1941
     25 C18         4.3538    2.0780    5.7648 C.2       1 <0>        -0.2373
     26 C19         5.5025    2.7984    5.7028 C.2       1 <0>         0.1825
     27 N7          8.7680    3.6708    2.2003 N.pl3     1 <0>        -0.8153
     28 H2         -0.9596    1.8502    0.0421 H         1 <0>         0.1236
     29 H3          1.1497    3.1228    0.0186 H         1 <0>         0.1211
     30 H4          3.3023    1.9328   -0.0117 H         1 <0>         0.1148
     31 H5         -0.9110   -0.6091    0.0261 H         1 <0>         0.1207
     32 H6          1.4046   -2.6252    0.9897 H         1 <0>         0.0861
     33 H7          0.8662   -2.7207   -0.7142 H         1 <0>         0.0807
     34 H8          3.4934   -3.1462    0.0395 H         1 <0>         0.0877
     35 H9          3.0527   -2.4386   -1.5506 H         1 <0>         0.0819
     36 H10         4.5799   -0.8530   -1.8992 H         1 <0>         0.4075
     37 H11         4.8566    0.5657    1.4284 H         1 <0>         0.1569
     38 H12         8.1318    2.0062   -1.8429 H         1 <0>         0.1940
     39 H13         3.0094    0.7979    4.6740 H         1 <0>         0.1825
     40 H14         3.7830    2.0404    6.6808 H         1 <0>         0.1713
     41 H15         5.8518    3.3458    6.5657 H         1 <0>         0.1835
     42 H16         8.8543    3.4732    1.2545 H         1 <0>         0.4288
     43 H17         9.4498    4.1935    2.6507 H         1 <0>         0.4047
@<TRIPOS>BOND
     1    1    6 ar
     2    1    2 ar
     3    1   28 1
     4    2    3 ar
     5    2   29 1
     6    3    4 ar
     7    3   30 1
     8    4    9 1
     9    4    5 ar
    10    5    6 ar
    11    5    7 1
    12    6   31 1
    13    7    8 1
    14    7   32 1
    15    7   33 1
    16    8    9 1
    17    8   34 1
    18    8   35 1
    19    9   10 1
    20    9   11 1
    21   11   12 1
    22   11   36 1
    23   12   17 ar
    24   12   13 ar
    25   13   14 ar
    26   13   37 1
    27   14   15 ar
    28   14   18 1
    29   15   16 ar
    30   16   17 ar
    31   16   38 1
    32   18   22 2
    33   18   19 1
    34   19   20 2
    35   19   27 1
    36   20   21 1
    37   21   26 1
    38   21   22 1
    39   22   23 1
    40   23   24 2
    41   24   25 1
    42   24   39 1
    43   25   26 2
    44   25   40 1
    45   26   41 1
    46   27   42 1
    47   27   43 1
@<TRIPOS>MOLECULE
CHEMBL576486
   37    40     0     0     0
SMALL
USER_CHARGES

@<TRIPOS>ATOM
      1 C1          1.2467   -4.2943   -0.0956 C.2       1 <0>        -0.2377
      2 C2          2.6402   -4.4320   -0.1057 C.2       1 <0>         0.1946
      3 N1          3.4092   -3.3662   -0.0920 N.2       1 <0>        -0.4767
      4 C3          2.8798   -2.1400   -0.0685 C.2       1 <0>         0.3170
      5 C4          3.4561   -0.8610   -0.0502 C.2       1 <0>        -0.2542
      6 C5          2.3991    0.0681   -0.0287 C.2       1 <0>         0.4267
      7 N2          1.2611   -0.5904   -0.0335 N.2       1 <0>        -0.3718
      8 N3          1.5222   -1.9648   -0.0580 N.pl3     1 <0>        -0.2932
      9 C6          0.7002   -3.0522   -0.0717 C.2       1 <0>         0.1837
     10 N4          2.5360    1.4553   -0.0054 N.pl3     1 <0>        -0.8150
     11 C7          4.8984   -0.5488   -0.0525 C.ar      1 <0>         0.3056
     12 C8          5.8465   -1.5717    0.0330 C.ar      1 <0>        -0.2917
     13 C9          7.1926   -1.2226    0.0263 C.ar      1 <0>         0.4440
     14 N5          7.5272    0.0640   -0.0608 N.ar      1 <0>        -0.5915
     15 C10         6.6045    1.0014   -0.1399 C.ar      1 <0>         0.3471
     16 N6          5.3192    0.7164   -0.1420 N.ar      1 <0>        -0.5806
     17 N7          8.1728   -2.1998    0.1094 N.pl3     1 <0>        -0.6033
     18 C11         9.5842   -1.8410    0.3201 C.3       1 <0>         0.0903
     19 C12        10.1263   -2.6754    1.4863 C.3       1 <0>         0.0459
     20 O1          9.8520   -4.0573    1.2438 O.3       1 <0>        -0.3791
     21 C13         8.4596   -4.3738    1.1723 C.3       1 <0>         0.0475
     22 C14         7.8314   -3.6267   -0.0042 C.3       1 <0>         0.0849
     23 H1          0.6127   -5.1684   -0.1113 H         1 <0>         0.1720
     24 H2          3.0841   -5.4164   -0.1243 H         1 <0>         0.1844
     25 H3         -0.3725   -2.9269   -0.0640 H         1 <0>         0.1842
     26 H4          3.4160    1.8570   -0.0774 H         1 <0>         0.4289
     27 H5          1.7513    2.0187    0.0827 H         1 <0>         0.4051
     28 H6          5.5421   -2.6056    0.1029 H         1 <0>         0.1562
     29 H7          6.9120    2.0344   -0.2093 H         1 <0>         0.1949
     30 H8         10.1564   -2.0561   -0.5824 H         1 <0>         0.0720
     31 H9          9.6615   -0.7806    0.5603 H         1 <0>         0.1047
     32 H10        11.2029   -2.5273    1.5704 H         1 <0>         0.1076
     33 H11         9.6420   -2.3650    2.4121 H         1 <0>         0.0549
     34 H12         8.3372   -5.4476    1.0306 H         1 <0>         0.1089
     35 H13         7.9692   -4.0696    2.0970 H         1 <0>         0.0561
     36 H14         6.7485   -3.7483    0.0213 H         1 <0>         0.1004
     37 H15         8.2241   -4.0247   -0.9399 H         1 <0>         0.0774
@<TRIPOS>BOND
     1    1    9 2
     2    1    2 1
     3    1   23 1
     4    2    3 2
     5    2   24 1
     6    3    4 1
     7    4    8 1
     8    4    5 2
     9    5    6 1
    10    5   11 1
    11    6    7 2
    12    6   10 1
    13    7    8 1
    14    8    9 1
    15    9   25 1
    16   10   26 1
    17   10   27 1
    18   11   16 ar
    19   11   12 ar
    20   12   13 ar
    21   12   28 1
    22   13   14 ar
    23   13   17 1
    24   14   15 ar
    25   15   16 ar
    26   15   29 1
    27   17   22 1
    28   17   18 1
    29   18   19 1
    30   18   30 1
    31   18   31 1
    32   19   20 1
    33   19   32 1
    34   19   33 1
    35   20   21 1
    36   21   22 1
    37   21   34 1
    38   21   35 1
    39   22   36 1
    40   22   37 1
@<TRIPOS>MOLECULE
CHEMBL520947
   44    47     0     0     0
SMALL
USER_CHARGES

@<TRIPOS>ATOM
      1 C1         -0.0168    1.3898    0.0097 C.ar      1 <0>        -0.1283
      2 C2          1.1703    2.0933    0.0021 C.ar      1 <0>        -0.0111
      3 C3          2.3776    1.4180   -0.0135 C.ar      1 <0>        -0.6711
      4 C4          2.4025    0.0349   -0.0216 C.ar      1 <0>        -0.0124
      5 C5          1.2216   -0.6792   -0.0137 C.ar      1 <0>        -0.1318
      6 C6          0.0021   -0.0041    0.0020 C.ar      1 <0>        -0.0010
      7 C7         -1.2702   -0.7657    0.0101 C.ar      1 <0>        -0.0802
      8 C8         -2.4920   -0.0681    0.0196 C.ar      1 <0>         0.0119
      9 C9         -3.6803   -0.7163    0.0273 C.ar      1 <0>        -0.1466
     10 C10        -3.7114   -2.1292    0.0252 C.ar      1 <0>         0.2359
     11 C11        -2.4384   -2.8667    0.0147 C.ar      1 <0>        -0.2321
     12 C12        -1.2333   -2.1447    0.0023 C.ar      1 <0>         0.0123
     13 C13        -2.7703   -4.2206    0.0149 C.2       1 <0>         0.5309
     14 N1         -4.1107   -4.3108    0.0246 N.pl3     1 <0>        -0.4339
     15 N2         -4.6757   -3.0310    0.0308 N.pl3     1 <0>        -0.4202
     16 H1         -4.6126   -5.1408    0.0269 H         1 <0>         0.4708
     17 N3         -1.8792   -5.2813    0.0067 N.pl3     1 <0>        -0.7804
     18 S1          3.8893    2.3230   -0.0236 S.o2      1 <0>         2.6867
     19 O1          4.8719    1.4661   -0.5889 O.2       1 <0>        -0.9455
     20 O2          3.5927    3.6031   -0.5647 O.2       1 <0>        -0.9443
     21 N4          4.3251    2.5660    1.5554 N.pl3     1 <0>        -0.9990
     22 C14         3.8715    3.7565    2.2918 C.3       1 <0>         0.0835
     23 C15         3.2626    3.2992    3.6222 C.3       1 <0>         0.0474
     24 O3          4.1931    2.4505    4.2987 O.3       1 <0>        -0.3725
     25 C16         4.5045    1.2454    3.5955 C.3       1 <0>         0.0477
     26 C17         5.1724    1.5947    2.2654 C.3       1 <0>         0.0836
     27 H2         -0.9587    1.9180    0.0260 H         1 <0>         0.1397
     28 H3          1.1569    3.1732    0.0081 H         1 <0>         0.1475
     29 H4          3.3479   -0.4871   -0.0345 H         1 <0>         0.1464
     30 H5          1.2422   -1.7590   -0.0204 H         1 <0>         0.1351
     31 H6         -2.4815    1.0119    0.0213 H         1 <0>         0.1588
     32 H7         -4.6028   -0.1549    0.0352 H         1 <0>         0.1606
     33 H8         -0.2866   -2.6645   -0.0095 H         1 <0>         0.1519
     34 H9         -0.9241   -5.1122    0.0000 H         1 <0>         0.4464
     35 H10        -2.2104   -6.1930    0.0077 H         1 <0>         0.4303
     36 H11         4.7189    4.4149    2.4830 H         1 <0>         0.0899
     37 H12         3.1195    4.2858    1.7065 H         1 <0>         0.1005
     38 H13         3.0464    4.1694    4.2419 H         1 <0>         0.1105
     39 H14         2.3410    2.7495    3.4309 H         1 <0>         0.0543
     40 H15         5.1817    0.6381    4.1960 H         1 <0>         0.1102
     41 H16         3.5874    0.6882    3.4041 H         1 <0>         0.0534
     42 H17         5.2815    0.6931    1.6627 H         1 <0>         0.0999
     43 H18         6.1530    2.0318    2.4539 H         1 <0>         0.0895
     44 H19        -5.6260   -2.8369    0.0383 H         1 <0>         0.4747
@<TRIPOS>BOND
     1    1    6 ar
     2    1    2 ar
     3    1   27 1
     4    2    3 ar
     5    2   28 1
     6    3    4 ar
     7    3   18 1
     8    4    5 ar
     9    4   29 1
    10    5    6 ar
    11    5   30 1
    12    6    7 1
    13    7   12 ar
    14    7    8 ar
    15    8    9 ar
    16    8   31 1
    17    9   10 ar
    18    9   32 1
    19   10   11 ar
    20   10   15 2
    21   11   12 ar
    22   11   13 2
    23   12   33 1
    24   13   17 1
    25   13   14 1
    26   14   16 1
    27   14   15 1
    28   15   44 1
    29   17   34 1
    30   17   35 1
    31   18   19 2
    32   18   20 2
    33   18   21 1
    34   21   26 1
    35   21   22 1
    36   22   23 1
    37   22   36 1
    38   22   37 1
    39   23   24 1
    40   23   38 1
    41   23   39 1
    42   24   25 1
    43   25   26 1
    44   25   40 1
    45   25   41 1
    46   26   42 1
    47   26   43 1
@<TRIPOS>MOLECULE
CHEMBL520947__1
   43    46     0     0     0
SMALL
USER_CHARGES

@<TRIPOS>ATOM
      1 C1         -0.0168    1.3898    0.0097 C.ar      1 <0>        -0.1435
      2 C2          1.1703    2.0933    0.0021 C.ar      1 <0>        -0.0116
      3 C3          2.3776    1.4180   -0.0135 C.ar      1 <0>        -0.6921
      4 C4          2.4025    0.0349   -0.0216 C.ar      1 <0>        -0.0120
      5 C5          1.2216   -0.6792   -0.0137 C.ar      1 <0>        -0.1481
      6 C6          0.0021   -0.0041    0.0020 C.ar      1 <0>         0.0413
      7 C7         -1.2702   -0.7657    0.0101 C.ar      1 <0>        -0.1342
      8 C8         -2.4920   -0.0681    0.0196 C.ar      1 <0>        -0.0480
      9 C9         -3.6803   -0.7163    0.0273 C.ar      1 <0>        -0.1183
     10 C10        -3.7114   -2.1292    0.0252 C.ar      1 <0>         0.1475
     11 C11        -2.4384   -2.8667    0.0147 C.ar      1 <0>        -0.2717
     12 C12        -1.2333   -2.1447    0.0023 C.ar      1 <0>         0.0150
     13 C13        -2.7703   -4.2206    0.0149 C.2       1 <0>         0.4106
     14 N1         -4.1107   -4.3108    0.0246 N.pl3     1 <0>        -0.4616
     15 N2         -4.6757   -3.0310    0.0308 N.2       1 <0>        -0.3169
     16 H1         -4.6126   -5.1408    0.0269 H         1 <0>         0.4413
     17 N3         -1.8792   -5.2813    0.0067 N.pl3     1 <0>        -0.8362
     18 S1          3.8893    2.3230   -0.0236 S.o2      1 <0>         2.6911
     19 O1          4.8719    1.4661   -0.5889 O.2       1 <0>        -0.9532
     20 O2          3.5927    3.6031   -0.5647 O.2       1 <0>        -0.9522
     21 N4          4.3251    2.5660    1.5554 N.pl3     1 <0>        -1.0012
     22 C14         3.8715    3.7565    2.2918 C.3       1 <0>         0.0856
     23 C15         3.2626    3.2992    3.6222 C.3       1 <0>         0.0464
     24 O3          4.1931    2.4505    4.2987 O.3       1 <0>        -0.3750
     25 C16         4.5045    1.2454    3.5955 C.3       1 <0>         0.0465
     26 C17         5.1724    1.5947    2.2654 C.3       1 <0>         0.0857
     27 H2         -0.9587    1.9180    0.0260 H         1 <0>         0.1368
     28 H3          1.1569    3.1732    0.0081 H         1 <0>         0.1394
     29 H4          3.3479   -0.4871   -0.0345 H         1 <0>         0.1384
     30 H5          1.2422   -1.7590   -0.0204 H         1 <0>         0.1322
     31 H6         -2.4815    1.0119    0.0213 H         1 <0>         0.1303
     32 H7         -4.6028   -0.1549    0.0352 H         1 <0>         0.1328
     33 H8         -0.2866   -2.6645   -0.0095 H         1 <0>         0.1230
     34 H9         -0.9241   -5.1122    0.0000 H         1 <0>         0.4223
     35 H10        -2.2104   -6.1930    0.0077 H         1 <0>         0.4086
     36 H11         4.7189    4.4149    2.4830 H         1 <0>         0.0858
     37 H12         3.1195    4.2858    1.7065 H         1 <0>         0.1000
     38 H13         3.0464    4.1694    4.2419 H         1 <0>         0.1084
     39 H14         2.3410    2.7495    3.4309 H         1 <0>         0.0574
     40 H15         5.1817    0.6381    4.1960 H         1 <0>         0.1082
     41 H16         3.5874    0.6882    3.4041 H         1 <0>         0.0565
     42 H17         5.2815    0.6931    1.6627 H         1 <0>         0.0995
     43 H18         6.1530    2.0318    2.4539 H         1 <0>         0.0854
@<TRIPOS>BOND
     1    1    6 ar
     2    1    2 ar
     3    1   27 1
     4    2    3 ar
     5    2   28 1
     6    3    4 ar
     7    3   18 1
     8    4    5 ar
     9    4   29 1
    10    5    6 ar
    11    5   30 1
    12    6    7 1
    13    7   12 ar
    14    7    8 ar
    15    8    9 ar
    16    8   31 1
    17    9   10 ar
    18    9   32 1
    19   10   11 ar
    20   10   15 2
    21   11   12 ar
    22   11   13 2
    23   12   33 1
    24   13   17 1
    25   13   14 1
    26   14   16 1
    27   14   15 1
    28   17   34 1
    29   17   35 1
    30   18   19 2
    31   18   20 2
    32   18   21 1
    33   21   26 1
    34   21   22 1
    35   22   23 1
    36   22   36 1
    37   22   37 1
    38   23   24 1
    39   23   38 1
    40   23   39 1
    41   24   25 1
    42   25   26 1
    43   25   40 1
    44   25   41 1
    45   26   42 1
    46   26   43 1
@<TRIPOS>MOLECULE
CHEMBL520947__2
   43    46     0     0     0
SMALL
USER_CHARGES

@<TRIPOS>ATOM
      1 C1         -0.0168    1.3892    0.0097 C.ar      1 <0>        -0.1397
      2 C2          1.1704    2.0929    0.0021 C.ar      1 <0>        -0.0127
      3 C3          2.3775    1.4177   -0.0135 C.ar      1 <0>        -0.6875
      4 C4          2.4022    0.0347   -0.0216 C.ar      1 <0>        -0.0125
      5 C5          1.2209   -0.6791   -0.0142 C.ar      1 <0>        -0.1418
      6 C6          0.0021   -0.0041    0.0020 C.ar      1 <0>         0.0340
      7 C7         -1.2711   -0.7661    0.0106 C.ar      1 <0>        -0.1175
      8 C8         -2.4934   -0.0829    0.0205 C.ar      1 <0>        -0.0432
      9 C9         -3.6726   -0.7669    0.0280 C.ar      1 <0>        -0.1482
     10 C10        -3.6736   -2.1612    0.0259 C.ar      1 <0>         0.1641
     11 C11        -2.4507   -2.8596    0.0159 C.ar      1 <0>        -0.1991
     12 C12        -1.2470   -2.1521    0.0029 C.ar      1 <0>        -0.0069
     13 C13        -2.7909   -4.2840    0.0166 C.2       1 <0>         0.3663
     14 N1         -4.0938   -4.3794    0.0261 N.2       1 <0>        -0.3190
     15 N2         -4.6680   -3.1044    0.0320 N.pl3     1 <0>        -0.5020
     16 H1         -5.6197   -2.9171    0.0396 H         1 <0>         0.4433
     17 N3         -1.8858   -5.3484    0.0081 N.pl3     1 <0>        -0.8319
     18 S1          3.8894    2.3225   -0.0236 S.o2      1 <0>         2.6908
     19 O1          4.8719    1.4655   -0.5889 O.2       1 <0>        -0.9515
     20 O2          3.5929    3.6026   -0.5647 O.2       1 <0>        -0.9513
     21 N4          4.3252    2.5655    1.5554 N.pl3     1 <0>        -1.0008
     22 C14         3.8717    3.7561    2.2918 C.3       1 <0>         0.0854
     23 C15         3.2627    3.2988    3.6222 C.3       1 <0>         0.0464
     24 O3          4.1932    2.4500    4.2987 O.3       1 <0>        -0.3746
     25 C16         4.5044    1.2449    3.5955 C.3       1 <0>         0.0465
     26 C17         5.1724    1.5942    2.2654 C.3       1 <0>         0.0853
     27 H2         -0.9587    1.9174    0.0260 H         1 <0>         0.1365
     28 H3          1.1570    3.1728    0.0081 H         1 <0>         0.1408
     29 H4          3.3474   -0.4875   -0.0342 H         1 <0>         0.1405
     30 H5          1.2413   -1.7589   -0.0212 H         1 <0>         0.1345
     31 H6         -2.5020    0.9970    0.0226 H         1 <0>         0.1358
     32 H7         -4.6083   -0.2276    0.0360 H         1 <0>         0.1335
     33 H8         -0.3050   -2.6802   -0.0093 H         1 <0>         0.1307
     34 H9         -0.9316   -5.1737    0.0009 H         1 <0>         0.4130
     35 H10        -2.2115   -6.2621    0.0094 H         1 <0>         0.4104
     36 H11         4.7192    4.4144    2.4830 H         1 <0>         0.0863
     37 H12         3.1198    4.2854    1.7065 H         1 <0>         0.0998
     38 H13         3.0466    4.1690    4.2419 H         1 <0>         0.1085
     39 H14         2.3411    2.7492    3.4309 H         1 <0>         0.0570
     40 H15         5.1816    0.6375    4.1960 H         1 <0>         0.1088
     41 H16         3.5873    0.6878    3.4041 H         1 <0>         0.0564
     42 H17         5.2814    0.6925    1.6627 H         1 <0>         0.0999
     43 H18         6.1530    2.0311    2.4539 H         1 <0>         0.0860
@<TRIPOS>BOND
     1    1    6 ar
     2    1    2 ar
     3    1   27 1
     4    2    3 ar
     5    2   28 1
     6    3    4 ar
     7    3   18 1
     8    4    5 ar
     9    4   29 1
    10    5    6 ar
    11    5   30 1
    12    6    7 1
    13    7   12 ar
    14    7    8 ar
    15    8    9 ar
    16    8   31 1
    17    9   10 ar
    18    9   32 1
    19   10   15 1
    20   10   11 ar
    21   11   12 ar
    22   11   13 1
    23   12   33 1
    24   13   14 2
    25   13   17 1
    26   14   15 1
    27   15   16 1
    28   17   34 1
    29   17   35 1
    30   18   19 2
    31   18   20 2
    32   18   21 1
    33   21   26 1
    34   21   22 1
    35   22   23 1
    36   22   36 1
    37   22   37 1
    38   23   24 1
    39   23   38 1
    40   23   39 1
    41   24   25 1
    42   25   26 1
    43   25   40 1
    44   25   41 1
    45   26   42 1
    46   26   43 1
@<TRIPOS>MOLECULE
CHEMBL568815
   38    41     0     0     0
SMALL
USER_CHARGES

@<TRIPOS>ATOM
      1 C1          1.1809   -4.2794   -0.0526 C.2       1 <0>        -0.2350
      2 C2          2.5729   -4.4299   -0.0667 C.2       1 <0>         0.1978
      3 N1          3.3516   -3.3711   -0.0612 N.2       1 <0>        -0.4748
      4 C3          2.8336   -2.1400   -0.0421 C.2       1 <0>         0.3219
      5 C4          3.4215   -0.8663   -0.0327 C.2       1 <0>        -0.2600
      6 C5          2.3731    0.0726   -0.0126 C.2       1 <0>         0.4290
      7 N2          1.2292   -0.5756   -0.0099 N.2       1 <0>        -0.3710
      8 N3          1.4777   -1.9524   -0.0278 N.pl3     1 <0>        -0.2920
      9 C6          0.6457   -3.0323   -0.0332 C.2       1 <0>         0.1832
     10 N4          2.5226    1.4585    0.0023 N.pl3     1 <0>        -0.8149
     11 C7          4.8665   -0.5672   -0.0422 C.ar      1 <0>         0.3066
     12 C8          5.8065   -1.5990    0.0446 C.ar      1 <0>        -0.2444
     13 C9          7.1533   -1.2629    0.0309 C.ar      1 <0>         0.3674
     14 N5          7.4999    0.0184   -0.0635 N.ar      1 <0>        -0.5917
     15 C10         6.5866    0.9651   -0.1436 C.ar      1 <0>         0.3445
     16 N6          5.2985    0.6931   -0.1394 N.ar      1 <0>        -0.5630
     17 O1          8.1026   -2.2271    0.1131 O.3       1 <0>        -0.2933
     18 C11         9.4658   -1.7987    0.0925 C.3       1 <0>         0.1133
     19 C12        10.3712   -2.9993    0.1924 C.ar      1 <0>        -0.1110
     20 C13        10.7708   -3.4617    1.4324 C.ar      1 <0>        -0.0638
     21 C14        11.6007   -4.5628    1.5252 C.ar      1 <0>        -0.1568
     22 C15        12.0319   -5.2030    0.3757 C.ar      1 <0>         0.1103
     23 C16        11.6309   -4.7389   -0.8657 C.ar      1 <0>        -0.1567
     24 C17        10.7968   -3.6408   -0.9559 C.ar      1 <0>        -0.0638
     25 F1         12.8435   -6.2793    0.4652 F         1 <0>        -0.1366
     26 H1          0.5388   -5.1478   -0.0617 H         1 <0>         0.1732
     27 H2          3.0078   -5.4184   -0.0819 H         1 <0>         0.1859
     28 H3         -0.4257   -2.8972   -0.0225 H         1 <0>         0.1852
     29 H4          3.4059    1.8519   -0.0750 H         1 <0>         0.4283
     30 H5          1.7434    2.0295    0.0901 H         1 <0>         0.4060
     31 H6          5.4930   -2.6297    0.1206 H         1 <0>         0.1645
     32 H7          6.9044    1.9946   -0.2191 H         1 <0>         0.2001
     33 H8          9.6661   -1.2690   -0.8388 H         1 <0>         0.0806
     34 H9          9.6503   -1.1333    0.9359 H         1 <0>         0.0806
     35 H10        10.4347   -2.9620    2.3289 H         1 <0>         0.1356
     36 H11        11.9131   -4.9237    2.4940 H         1 <0>         0.1396
     37 H12        11.9669   -5.2372   -1.7630 H         1 <0>         0.1396
     38 H13        10.4803   -3.2813   -1.9239 H         1 <0>         0.1357
@<TRIPOS>BOND
     1    1    9 2
     2    1    2 1
     3    1   26 1
     4    2    3 2
     5    2   27 1
     6    3    4 1
     7    4    8 1
     8    4    5 2
     9    5    6 1
    10    5   11 1
    11    6    7 2
    12    6   10 1
    13    7    8 1
    14    8    9 1
    15    9   28 1
    16   10   29 1
    17   10   30 1
    18   11   16 ar
    19   11   12 ar
    20   12   13 ar
    21   12   31 1
    22   13   14 ar
    23   13   17 1
    24   14   15 ar
    25   15   16 ar
    26   15   32 1
    27   17   18 1
    28   18   19 1
    29   18   33 1
    30   18   34 1
    31   19   24 ar
    32   19   20 ar
    33   20   21 ar
    34   20   35 1
    35   21   22 ar
    36   21   36 1
    37   22   23 ar
    38   22   25 1
    39   23   24 ar
    40   23   37 1
    41   24   38 1
@<TRIPOS>MOLECULE
CHEMBL570192
   42    44     0     0     0
SMALL
USER_CHARGES

@<TRIPOS>ATOM
      1 C1          1.7224    1.3564   -0.2701 C.3       1 <0>        -0.0987
      2 C2          1.3476   -0.1019   -0.2083 C.2       1 <0>         0.1017
      3 C3          1.0189   -0.8848   -1.2609 C.2       1 <0>        -0.2763
      4 C4          0.7400   -2.1709   -0.7707 C.2       1 <0>         0.3027
      5 N1          0.8980   -2.1527    0.5320 N.2       1 <0>        -0.3186
      6 N2          1.2860   -0.8600    0.9068 N.pl3     1 <0>        -0.4647
      7 H1          1.4757   -0.5613    1.8099 H         1 <0>         0.4420
      8 N3          0.3598   -3.2790   -1.5378 N.pl3     1 <0>        -0.5985
      9 C5          0.0819   -3.1255   -2.8867 C.ar      1 <0>         0.4296
     10 C6         -0.1847   -4.2475   -3.6758 C.ar      1 <0>         0.0205
     11 N4         -0.4495   -4.1076   -4.9566 N.ar      1 <0>        -0.3321
     12 C7         -0.4643   -2.8937   -5.5065 C.ar      1 <0>         0.0704
     13 C8         -0.1969   -1.7655   -4.7163 C.ar      1 <0>         0.3747
     14 N5          0.0642   -1.9122   -3.4256 N.ar      1 <0>        -0.5343
     15 O1         -0.2107   -0.5294   -5.2704 O.3       1 <0>        -0.2821
     16 C9          0.0047    0.5774   -4.3926 C.3       1 <0>         0.1412
     17 H2         -0.4458    0.3652   -3.4230 H         1 <0>         0.1151
     18 C10         1.5076    0.8049   -4.2179 C.3       1 <0>        -0.1681
     19 C11        -0.6256    1.8141   -4.9796 C.ar      1 <0>         0.1120
     20 C12        -1.3738    1.7149   -6.1377 C.ar      1 <0>        -0.1219
     21 C13        -1.9497    2.8574   -6.6703 C.ar      1 <0>        -0.1047
     22 C14        -1.7504    4.0650   -6.0140 C.ar      1 <0>         0.0524
     23 C15        -0.9886    4.0858   -4.8584 C.ar      1 <0>         0.0821
     24 N6         -0.4610    2.9763   -4.3792 N.ar      1 <0>        -0.4435
     25 F1         -2.2924    5.2043   -6.4972 F         1 <0>        -0.1259
     26 C16        -0.7520   -2.7411   -6.9009 C.1       1 <0>         0.2797
     27 N7         -0.9803   -2.6201   -8.0072 N.1       1 <0>        -0.3863
     28 C17        -0.1684   -5.6218   -3.0577 C.3       1 <0>        -0.0987
     29 H3          2.7999    1.4491   -0.4061 H         1 <0>         0.0842
     30 H4          1.2086    1.8284   -1.1075 H         1 <0>         0.0920
     31 H5          1.4299    1.8464    0.6586 H         1 <0>         0.0738
     32 H6          0.9778   -0.5756   -2.2949 H         1 <0>         0.1791
     33 H7          0.2909   -4.1540   -1.1249 H         1 <0>         0.4328
     34 H8          1.9635   -0.0896   -3.7934 H         1 <0>         0.0747
     35 H9          1.9581    1.0171   -5.1875 H         1 <0>         0.0684
     36 H10         1.6719    1.6492   -3.5483 H         1 <0>         0.0909
     37 H11        -1.5076    0.7587   -6.6218 H         1 <0>         0.1517
     38 H12        -2.5390    2.8099   -7.5741 H         1 <0>         0.1521
     39 H13        -0.8282    5.0202   -4.3413 H         1 <0>         0.1742
     40 H14        -1.1654   -5.8676   -2.6921 H         1 <0>         0.0875
     41 H15         0.1345   -6.3535   -3.8067 H         1 <0>         0.0928
     42 H16         0.5374   -5.6384   -2.2273 H         1 <0>         0.0762
@<TRIPOS>BOND
     1    1    2 1
     2    1   29 1
     3    1   30 1
     4    1   31 1
     5    2    6 1
     6    2    3 2
     7    3    4 1
     8    3   32 1
     9    4    5 2
    10    4    8 1
    11    5    6 1
    12    6    7 1
    13    8    9 1
    14    8   33 1
    15    9   14 ar
    16    9   10 ar
    17   10   11 ar
    18   10   28 1
    19   11   12 ar
    20   12   13 ar
    21   12   26 1
    22   13   14 ar
    23   13   15 1
    24   15   16 1
    25   16   17 1
    26   16   18 1
    27   16   19 1
    28   18   34 1
    29   18   35 1
    30   18   36 1
    31   19   24 ar
    32   19   20 ar
    33   20   21 ar
    34   20   37 1
    35   21   22 ar
    36   21   38 1
    37   22   23 ar
    38   22   25 1
    39   23   24 ar
    40   23   39 1
    41   26   27 3
    42   28   40 1
    43   28   41 1
    44   28   42 1
@<TRIPOS>MOLECULE
CHEMBL570192__1
   42    44     0     0     0
SMALL
USER_CHARGES

@<TRIPOS>ATOM
      1 C1         -1.7853    1.2897    0.2938 C.3       1 <0>        -0.0777
      2 C2         -1.3358   -0.1463    0.2115 C.2       1 <0>         0.0921
      3 C3         -0.9867   -0.9564    1.2952 C.2       1 <0>        -0.2754
      4 C4         -0.6397   -2.1796    0.8075 C.2       1 <0>         0.3072
      5 N1         -0.7696   -2.1315   -0.5436 N.pl3     1 <0>        -0.4925
      6 N2         -1.2120   -0.8473   -0.8862 N.2       1 <0>        -0.2803
      7 H1         -0.5913   -2.8581   -1.1611 H         1 <0>         0.4369
      8 N3         -0.2267   -3.2785    1.5569 N.pl3     1 <0>        -0.6151
      9 C5          0.0460   -3.1330    2.9080 C.ar      1 <0>         0.4249
     10 C6          0.3470   -4.2558    3.6835 C.ar      1 <0>         0.0214
     11 N4          0.6062   -4.1236    4.9663 N.ar      1 <0>        -0.3321
     12 C7          0.5830   -2.9167    5.5310 C.ar      1 <0>         0.0761
     13 C8          0.2815   -1.7876    4.7544 C.ar      1 <0>         0.3756
     14 N5          0.0261   -1.9264    3.4617 N.ar      1 <0>        -0.5298
     15 O1          0.2566   -0.5586    5.3237 O.3       1 <0>        -0.2813
     16 C9          0.0070    0.5517    4.4594 C.3       1 <0>         0.1413
     17 H2          0.4584    0.3627    3.4854 H         1 <0>         0.1163
     18 C10        -1.5024    0.7401    4.2941 C.3       1 <0>        -0.1673
     19 C11         0.6063    1.7984    5.0574 C.ar      1 <0>         0.1119
     20 C12         1.3625    1.7068    6.2109 C.ar      1 <0>        -0.1229
     21 C13         1.9097    2.8586    6.7537 C.ar      1 <0>        -0.1050
     22 C14         1.6744    4.0675    6.1120 C.ar      1 <0>         0.0524
     23 C15         0.9068    4.0804    4.9602 C.ar      1 <0>         0.0830
     24 N6          0.4072    2.9624    4.4709 N.ar      1 <0>        -0.4416
     25 F1          2.1876    5.2157    6.6055 F         1 <0>        -0.1259
     26 C16         0.8646   -2.7725    6.9276 C.1       1 <0>         0.2778
     27 N7          1.0881   -2.6581    8.0355 N.1       1 <0>        -0.3821
     28 C17         0.3742   -5.6222    3.0484 C.3       1 <0>        -0.0984
     29 H3         -0.9175    1.9462    0.2310 H         1 <0>         0.0812
     30 H4         -2.4646    1.5056   -0.5309 H         1 <0>         0.0745
     31 H5         -2.2990    1.4560    1.2407 H         1 <0>         0.0802
     32 H6         -0.9907   -0.6641    2.3349 H         1 <0>         0.1780
     33 H7         -0.1300   -4.1458    1.1333 H         1 <0>         0.4286
     34 H8         -1.6928    1.5870    3.6348 H         1 <0>         0.0932
     35 H9         -1.9358   -0.1617    3.8616 H         1 <0>         0.0736
     36 H10        -1.9538    0.9291    5.2680 H         1 <0>         0.0680
     37 H11         1.5246    0.7493    6.6835 H         1 <0>         0.1510
     38 H12         2.5045    2.8170    7.6542 H         1 <0>         0.1519
     39 H13         0.7185    5.0159    4.4543 H         1 <0>         0.1747
     40 H14         1.3787   -5.8321    2.6810 H         1 <0>         0.0876
     41 H15         0.0937   -6.3722    3.7879 H         1 <0>         0.0940
     42 H16        -0.3301   -5.6505    2.2170 H         1 <0>         0.0742
@<TRIPOS>BOND
     1    1    2 1
     2    1   29 1
     3    1   30 1
     4    1   31 1
     5    2    3 1
     6    2    6 2
     7    3   32 1
     8    3    4 2
     9    4    8 1
    10    4    5 1
    11    5    7 1
    12    5    6 1
    13    8    9 1
    14    8   33 1
    15    9   14 ar
    16    9   10 ar
    17   10   11 ar
    18   10   28 1
    19   11   12 ar
    20   12   13 ar
    21   12   26 1
    22   13   14 ar
    23   13   15 1
    24   15   16 1
    25   16   17 1
    26   16   18 1
    27   16   19 1
    28   18   34 1
    29   18   35 1
    30   18   36 1
    31   19   24 ar
    32   19   20 ar
    33   20   21 ar
    34   20   37 1
    35   21   22 ar
    36   21   38 1
    37   22   23 ar
    38   22   25 1
    39   23   24 ar
    40   23   39 1
    41   26   27 3
    42   28   40 1
    43   28   41 1
    44   28   42 1
@<TRIPOS>MOLECULE
CHEMBL569957
   58    61     0     0     0
SMALL
USER_CHARGES

@<TRIPOS>ATOM
      1 C1          4.4733   -3.9277    1.2572 C.3       1 <0>        -0.1515
      2 C2          3.2626   -3.1557    1.7853 C.3       1 <0>        -0.1446
      3 C3          2.3858   -2.7166    0.6108 C.3       1 <0>         0.0948
      4 N1          1.2265   -1.9773    1.1165 N.am      1 <0>        -0.6129
      5 C4          1.2766   -0.5167    1.2184 C.3       1 <0>         0.0750
      6 C5          0.7990    0.1029   -0.0965 C.3       1 <0>         0.4335
      7 F1         -0.5155   -0.3019   -0.3524 F         1 <0>        -0.1728
      8 F2          0.8468    1.4977    0.0008 F         1 <0>        -0.1805
      9 F3          1.6288   -0.3205   -1.1401 F         1 <0>        -0.1847
     10 C6          0.1138   -2.6410    1.4879 C.2       1 <0>         0.5276
     11 O1         -0.8769   -2.0254    1.8204 O.2       1 <0>        -0.5121
     12 C7          0.1006   -4.1479    1.4901 C.3       1 <0>        -0.1219
     13 C8         -0.0727   -4.6593    0.0582 C.3       1 <0>        -0.1155
     14 C9         -0.0533   -6.1896    0.0553 C.3       1 <0>        -0.1312
     15 C10        -1.2194   -6.7126    0.8999 C.3       1 <0>         0.1161
     16 N2         -1.1415   -6.1107    2.2380 N.pl3     1 <0>        -0.5978
     17 C11        -1.0637   -4.6478    2.3510 C.3       1 <0>         0.1440
     18 C12        -1.1418   -6.9079    3.3724 C.ar      1 <0>         0.4444
     19 C13        -1.0047   -8.2880    3.2646 C.ar      1 <0>        -0.2900
     20 C14        -1.0108   -9.0458    4.4381 C.ar      1 <0>         0.3033
     21 N3         -1.1473   -8.4196    5.6112 N.ar      1 <0>        -0.5803
     22 C15        -1.2742   -7.1107    5.6661 C.ar      1 <0>         0.3463
     23 N4         -1.2679   -6.3625    4.5811 N.ar      1 <0>        -0.5900
     24 C16        -0.8694  -10.5138    4.3836 C.2       1 <0>        -0.2530
     25 C17        -0.9677  -11.4044    5.4690 C.2       1 <0>         0.4263
     26 N5         -0.7850  -12.6286    5.0253 N.2       1 <0>        -0.3722
     27 N6         -0.5616  -12.5915    3.6446 N.pl3     1 <0>        -0.2935
     28 C18        -0.6177  -11.2852    3.2392 C.2       1 <0>         0.3164
     29 N7         -0.4415  -10.9612    1.9554 N.2       1 <0>        -0.4752
     30 C19        -0.2135  -11.8879    1.0516 C.2       1 <0>         0.1940
     31 C20        -0.1520  -13.2357    1.4262 C.2       1 <0>        -0.2382
     32 C21        -0.3229  -13.5735    2.7295 C.2       1 <0>         0.1835
     33 N8         -1.2165  -11.0481    6.7935 N.pl3     1 <0>        -0.8148
     34 H1          5.0515   -3.2861    0.5921 H         1 <0>         0.0587
     35 H2          5.0980   -4.2405    2.0939 H         1 <0>         0.0608
     36 H3          4.1332   -4.8064    0.7092 H         1 <0>         0.0576
     37 H4          2.6844   -3.7972    2.4503 H         1 <0>         0.0676
     38 H5          3.6027   -2.2769    2.3332 H         1 <0>         0.0691
     39 H6          2.9639   -2.0750   -0.0542 H         1 <0>         0.0899
     40 H7          2.0456   -3.5953    0.0629 H         1 <0>         0.0928
     41 H8          0.6300   -0.1869    2.0315 H         1 <0>         0.1297
     42 H9          2.3007   -0.2014    1.4178 H         1 <0>         0.1244
     43 H10         1.0406   -4.5194    1.8984 H         1 <0>         0.1026
     44 H11        -1.0242   -4.3075   -0.3404 H         1 <0>         0.0757
     45 H12         0.7415   -4.2847   -0.5623 H         1 <0>         0.0752
     46 H13        -0.1533   -6.5528   -0.9675 H         1 <0>         0.0849
     47 H14         0.8881   -6.5423    0.4767 H         1 <0>         0.0721
     48 H15        -2.1634   -6.4373    0.4298 H         1 <0>         0.0710
     49 H16        -1.1528   -7.7974    0.9829 H         1 <0>         0.0942
     50 H17        -0.8944   -4.3702    3.3914 H         1 <0>         0.1007
     51 H18        -1.9951   -4.2041    1.9992 H         1 <0>         0.0775
     52 H19        -0.8967   -8.7608    2.2997 H         1 <0>         0.1570
     53 H20        -1.3830   -6.6351    6.6296 H         1 <0>         0.1936
     54 H21        -0.0736  -11.6091    0.0177 H         1 <0>         0.1838
     55 H22         0.0352  -13.9990    0.6854 H         1 <0>         0.1715
     56 H23        -0.2804  -14.6082    3.0363 H         1 <0>         0.1837
     57 H24        -1.4190  -10.1264    7.0180 H         1 <0>         0.4285
     58 H25        -1.1870  -11.7218    7.4908 H         1 <0>         0.4050
@<TRIPOS>BOND
     1    1    2 1
     2    1   34 1
     3    1   35 1
     4    1   36 1
     5    2    3 1
     6    2   37 1
     7    2   38 1
     8    3    4 1
     9    3   39 1
    10    3   40 1
    11    4    5 1
    12    4   10 am
    13    5    6 1
    14    5   41 1
    15    5   42 1
    16    6    7 1
    17    6    8 1
    18    6    9 1
    19   10   11 2
    20   10   12 1
    21   12   17 1
    22   12   13 1
    23   12   43 1
    24   13   14 1
    25   13   44 1
    26   13   45 1
    27   14   15 1
    28   14   46 1
    29   14   47 1
    30   15   16 1
    31   15   48 1
    32   15   49 1
    33   16   17 1
    34   16   18 1
    35   17   50 1
    36   17   51 1
    37   18   23 ar
    38   18   19 ar
    39   19   20 ar
    40   19   52 1
    41   20   21 ar
    42   20   24 1
    43   21   22 ar
    44   22   23 ar
    45   22   53 1
    46   24   28 2
    47   24   25 1
    48   25   26 2
    49   25   33 1
    50   26   27 1
    51   27   32 1
    52   27   28 1
    53   28   29 1
    54   29   30 2
    55   30   31 1
    56   30   54 1
    57   31   32 2
    58   31   55 1
    59   32   56 1
    60   33   57 1
    61   33   58 1
@<TRIPOS>MOLECULE
CHEMBL569957__1
   58    61     0     0     0
SMALL
USER_CHARGES

@<TRIPOS>ATOM
      1 C1          3.5202   -3.0042   -0.2109 C.3       1 <0>        -0.1520
      2 C2          2.6645   -2.2937    0.8397 C.3       1 <0>        -0.1447
      3 C3          1.1839   -2.4763    0.4999 C.3       1 <0>         0.0956
      4 N1          0.3632   -1.9260    1.5815 N.am      1 <0>        -0.6122
      5 C4          0.1305   -0.4818    1.6624 C.3       1 <0>         0.0730
      6 C5         -1.0922   -0.1142    0.8194 C.3       1 <0>         0.4337
      7 F1         -2.2341   -0.7040    1.3721 F         1 <0>        -0.1746
      8 F2         -1.2468    1.2762    0.8035 F         1 <0>        -0.1799
      9 F3         -0.9140   -0.5786   -0.4882 F         1 <0>        -0.1832
     10 C6         -0.1779   -2.7483    2.5021 C.2       1 <0>         0.5289
     11 O1         -0.7709   -2.2864    3.4539 O.2       1 <0>        -0.5155
     12 C7         -0.0461   -4.2417    2.3487 C.3       1 <0>        -0.1198
     13 C8          1.2995   -4.6968    2.9183 C.3       1 <0>        -0.1155
     14 C9          1.4485   -6.2087    2.7334 C.3       1 <0>        -0.1318
     15 C10         0.3319   -6.9252    3.4994 C.3       1 <0>         0.1174
     16 N2         -0.9631   -6.3883    3.0597 N.pl3     1 <0>        -0.5977
     17 C11        -1.1795   -4.9359    3.1103 C.3       1 <0>         0.1412
     18 C12        -1.9618   -7.2359    2.6053 C.ar      1 <0>         0.4441
     19 C13        -1.8372   -8.6138    2.7498 C.ar      1 <0>        -0.2898
     20 C14        -2.8719   -9.4237    2.2756 C.ar      1 <0>         0.3034
     21 N3         -3.9344   -8.8472    1.7052 N.ar      1 <0>        -0.5801
     22 C15        -4.0103   -7.5383    1.5893 C.ar      1 <0>         0.3466
     23 N4         -3.0566   -6.7420    2.0293 N.ar      1 <0>        -0.5906
     24 C16        -2.7930  -10.8920    2.4018 C.2       1 <0>        -0.2526
     25 C17        -3.7255  -11.8251    1.9111 C.2       1 <0>         0.4262
     26 N5         -3.3104  -13.0344    2.2176 N.2       1 <0>        -0.3719
     27 N6         -2.1006  -12.9452    2.9150 N.pl3     1 <0>        -0.2936
     28 C18        -1.7713  -11.6212    3.0283 C.2       1 <0>         0.3163
     29 N7         -0.6507  -11.2480    3.6522 N.2       1 <0>        -0.4751
     30 C19         0.1627  -12.1419    4.1687 C.2       1 <0>         0.1941
     31 C20        -0.1375  -13.5061    4.0707 C.2       1 <0>        -0.2382
     32 C21        -1.2775  -13.8941    3.4447 C.2       1 <0>         0.1834
     33 N8         -4.8947  -11.5182    1.2167 N.pl3     1 <0>        -0.8150
     34 H1          3.3177   -2.5777   -1.1934 H         1 <0>         0.0587
     35 H2          4.5750   -2.8741    0.0312 H         1 <0>         0.0614
     36 H3          3.2776   -4.0668   -0.2190 H         1 <0>         0.0579
     37 H4          2.8670   -2.7201    1.8222 H         1 <0>         0.0715
     38 H5          2.9070   -1.2311    0.8478 H         1 <0>         0.0681
     39 H6          0.9574   -1.9542   -0.4297 H         1 <0>         0.0871
     40 H7          0.9662   -3.5379    0.3827 H         1 <0>         0.0934
     41 H8         -0.0456   -0.1998    2.7004 H         1 <0>         0.1325
     42 H9          1.0048    0.0487    1.2850 H         1 <0>         0.1238
     43 H10        -0.1025   -4.5053    1.2926 H         1 <0>         0.1003
     44 H11         2.1072   -4.1856    2.3945 H         1 <0>         0.0776
     45 H12         1.3450   -4.4546    3.9801 H         1 <0>         0.0748
     46 H13         1.3783   -6.4543    1.6738 H         1 <0>         0.0701
     47 H14         2.4168   -6.5286    3.1182 H         1 <0>         0.0846
     48 H15         0.3738   -7.9944    3.2912 H         1 <0>         0.0927
     49 H16         0.4544   -6.7541    4.5689 H         1 <0>         0.0719
     50 H17        -1.1803   -4.6025    4.1481 H         1 <0>         0.0782
     51 H18        -2.1349   -4.6924    2.6454 H         1 <0>         0.1022
     52 H19        -0.9639   -9.0459    3.2158 H         1 <0>         0.1571
     53 H20        -4.8820   -7.1035    1.1232 H         1 <0>         0.1936
     54 H21         1.0650  -11.8235    4.6696 H         1 <0>         0.1839
     55 H22         0.5292  -14.2426    4.4943 H         1 <0>         0.1715
     56 H23        -1.5244  -14.9420    3.3582 H         1 <0>         0.1837
     57 H24        -5.0681  -10.6053    0.9385 H         1 <0>         0.4285
     58 H25        -5.5348  -12.2176    1.0117 H         1 <0>         0.4050
@<TRIPOS>BOND
     1    1    2 1
     2    1   34 1
     3    1   35 1
     4    1   36 1
     5    2    3 1
     6    2   37 1
     7    2   38 1
     8    3    4 1
     9    3   39 1
    10    3   40 1
    11    4    5 1
    12    4   10 am
    13    5    6 1
    14    5   41 1
    15    5   42 1
    16    6    7 1
    17    6    8 1
    18    6    9 1
    19   10   11 2
    20   10   12 1
    21   12   17 1
    22   12   13 1
    23   12   43 1
    24   13   14 1
    25   13   44 1
    26   13   45 1
    27   14   15 1
    28   14   46 1
    29   14   47 1
    30   15   16 1
    31   15   48 1
    32   15   49 1
    33   16   17 1
    34   16   18 1
    35   17   50 1
    36   17   51 1
    37   18   23 ar
    38   18   19 ar
    39   19   20 ar
    40   19   52 1
    41   20   21 ar
    42   20   24 1
    43   21   22 ar
    44   22   23 ar
    45   22   53 1
    46   24   28 2
    47   24   25 1
    48   25   26 2
    49   25   33 1
    50   26   27 1
    51   27   32 1
    52   27   28 1
    53   28   29 1
    54   29   30 2
    55   30   31 1
    56   30   54 1
    57   31   32 2
    58   31   55 1
    59   32   56 1
    60   33   57 1
    61   33   58 1
@<TRIPOS>MOLECULE
CHEMBL582808
   46    50     0     0     0
SMALL
USER_CHARGES

@<TRIPOS>ATOM
      1 C1          1.2059   -4.2877   -0.0452 C.2       1 <0>        -0.2376
      2 C2          2.5991   -4.4273   -0.0584 C.2       1 <0>         0.1909
      3 N1          3.3695   -3.3624   -0.0552 N.2       1 <0>        -0.4663
      4 C3          2.8417   -2.1353   -0.0393 C.2       1 <0>         0.3170
      5 C4          3.4196   -0.8570   -0.0324 C.2       1 <0>        -0.2523
      6 C5          2.3639    0.0736   -0.0147 C.2       1 <0>         0.4254
      7 N2          1.2250   -0.5834   -0.0110 N.2       1 <0>        -0.3726
      8 N3          1.4844   -1.9583   -0.0260 N.pl3     1 <0>        -0.2931
      9 C6          0.6609   -3.0448   -0.0290 C.2       1 <0>         0.1824
     10 N4          2.5026    1.4607   -0.0023 N.pl3     1 <0>        -0.8156
     11 C7          4.8624   -0.5467   -0.0415 C.ar      1 <0>         0.3012
     12 C8          5.8095   -1.5704    0.0456 C.ar      1 <0>        -0.2807
     13 C9          7.1560   -1.2230    0.0323 C.ar      1 <0>         0.4601
     14 N5          7.4919    0.0627   -0.0623 N.ar      1 <0>        -0.5897
     15 C10         6.5701    1.0009   -0.1426 C.ar      1 <0>         0.3438
     16 N6          5.2844    0.7176   -0.1387 N.ar      1 <0>        -0.5806
     17 N7          8.1352   -2.2011    0.1167 N.pl3     1 <0>        -0.6006
     18 C11         9.5853   -1.9581    0.2235 C.3       1 <0>         0.1164
     19 C12        10.1528   -3.2337    0.8948 C.3       1 <0>        -0.1354
     20 C13         9.2736   -4.3401    0.2543 C.3       1 <0>        -0.1228
     21 C14         7.8988   -3.6522    0.1209 C.3       1 <0>         0.1893
     22 C15         7.2436   -4.0685   -1.1709 C.ar      1 <0>        -0.1090
     23 C16         7.6531   -3.5061   -2.3655 C.ar      1 <0>        -0.0679
     24 C17         7.0534   -3.8874   -3.5508 C.ar      1 <0>        -0.1551
     25 C18         6.0421   -4.8330   -3.5414 C.ar      1 <0>         0.1003
     26 C19         5.6328   -5.3956   -2.3443 C.ar      1 <0>        -0.1502
     27 C20         6.2376   -5.0166   -1.1609 C.ar      1 <0>        -0.0660
     28 F1          5.4548   -5.2062   -4.6995 F         1 <0>        -0.1409
     29 H1          0.5707   -5.1611   -0.0523 H         1 <0>         0.1706
     30 H2          3.0417   -5.4123   -0.0710 H         1 <0>         0.1805
     31 H3         -0.4116   -2.9181   -0.0190 H         1 <0>         0.1830
     32 H4          3.3828    1.8608   -0.0808 H         1 <0>         0.4287
     33 H5          1.7190    2.0257    0.0848 H         1 <0>         0.4046
     34 H6          5.5040   -2.6035    0.1216 H         1 <0>         0.1563
     35 H7          6.8786    2.0331   -0.2182 H         1 <0>         0.1933
     36 H8         10.0215   -1.8244   -0.7665 H         1 <0>         0.0641
     37 H9          9.7787   -1.0841    0.8454 H         1 <0>         0.0810
     38 H10        11.2036   -3.3740    0.6414 H         1 <0>         0.0877
     39 H11        10.0141   -3.2011    1.9754 H         1 <0>         0.0780
     40 H12         9.6631   -4.6246   -0.7231 H         1 <0>         0.0823
     41 H13         9.2062   -5.2074    0.9111 H         1 <0>         0.0881
     42 H14         7.2637   -3.9219    0.9647 H         1 <0>         0.0857
     43 H15         8.4417   -2.7682   -2.3726 H         1 <0>         0.1265
     44 H16         7.3732   -3.4476   -4.4839 H         1 <0>         0.1322
     45 H17         4.8438   -6.1330   -2.3358 H         1 <0>         0.1342
     46 H18         5.9216   -5.4585   -0.2275 H         1 <0>         0.1329
@<TRIPOS>BOND
     1    1    9 2
     2    1    2 1
     3    1   29 1
     4    2    3 2
     5    2   30 1
     6    3    4 1
     7    4    8 1
     8    4    5 2
     9    5    6 1
    10    5   11 1
    11    6    7 2
    12    6   10 1
    13    7    8 1
    14    8    9 1
    15    9   31 1
    16   10   32 1
    17   10   33 1
    18   11   16 ar
    19   11   12 ar
    20   12   13 ar
    21   12   34 1
    22   13   14 ar
    23   13   17 1
    24   14   15 ar
    25   15   16 ar
    26   15   35 1
    27   17   21 1
    28   17   18 1
    29   18   19 1
    30   18   36 1
    31   18   37 1
    32   19   20 1
    33   19   38 1
    34   19   39 1
    35   20   21 1
    36   20   40 1
    37   20   41 1
    38   21   22 1
    39   21   42 1
    40   22   27 ar
    41   22   23 ar
    42   23   24 ar
    43   23   43 1
    44   24   25 ar
    45   24   44 1
    46   25   26 ar
    47   25   28 1
    48   26   27 ar
    49   26   45 1
    50   27   46 1
@<TRIPOS>MOLECULE
CHEMBL582808__1
   46    50     0     0     0
SMALL
USER_CHARGES

@<TRIPOS>ATOM
      1 C1          1.0735   -3.6605   -1.8418 C.2       1 <0>        -0.2385
      2 C2          2.3803   -3.5226   -2.3255 C.2       1 <0>         0.1905
      3 N1          3.1714   -2.5946   -1.8351 N.2       1 <0>        -0.4701
      4 C3          2.7469   -1.7712   -0.8728 C.2       1 <0>         0.3127
      5 C4          3.3692   -0.7176   -0.1867 C.2       1 <0>        -0.2479
      6 C5          2.4285   -0.2069    0.7272 C.2       1 <0>         0.4208
      7 N2          1.3139   -0.8947    0.6109 N.2       1 <0>        -0.3673
      8 N3          1.4762   -1.8750   -0.3743 N.pl3     1 <0>        -0.2957
      9 C6          0.6337   -2.8283   -0.8641 C.2       1 <0>         0.1808
     10 N4          2.6429    0.8512    1.6092 N.pl3     1 <0>        -0.8195
     11 C7          4.7499   -0.2358   -0.3855 C.ar      1 <0>         0.2984
     12 C8          5.8122   -1.1397   -0.4689 C.ar      1 <0>        -0.2602
     13 C9          7.0934   -0.6327   -0.6571 C.ar      1 <0>         0.4580
     14 N5          7.2606    0.6858   -0.7503 N.ar      1 <0>        -0.5835
     15 C10         6.2340    1.5077   -0.6669 C.ar      1 <0>         0.3376
     16 N6          5.0038    1.0717   -0.4941 N.ar      1 <0>        -0.5620
     17 N7          8.1816   -1.4873   -0.7460 N.pl3     1 <0>        -0.6003
     18 C11         9.5940   -1.0738   -0.8336 C.3       1 <0>         0.1148
     19 C12        10.3139   -2.2633   -1.5165 C.3       1 <0>        -0.1346
     20 C13         9.5653   -3.4752   -0.9014 C.3       1 <0>        -0.1226
     21 C14         8.1186   -2.9561   -0.7622 C.3       1 <0>         0.1884
     22 C15         7.5129   -3.4572    0.5235 C.ar      1 <0>        -0.1099
     23 C16         7.8400   -2.8526    1.7229 C.ar      1 <0>        -0.0682
     24 C17         7.2848   -3.3110    2.9025 C.ar      1 <0>        -0.1522
     25 C18         6.4006   -4.3763    2.8828 C.ar      1 <0>         0.1014
     26 C19         6.0737   -4.9811    1.6810 C.ar      1 <0>        -0.1516
     27 C20         6.6261   -4.5176    0.5020 C.ar      1 <0>        -0.0787
     28 F1          5.8576   -4.8256    4.0354 F         1 <0>        -0.1391
     29 H1          0.4200   -4.4193   -2.2463 H         1 <0>         0.1703
     30 H2          2.7391   -4.1806   -3.1032 H         1 <0>         0.1819
     31 H3         -0.3712   -2.9198   -0.4792 H         1 <0>         0.1823
     32 H4          3.5241    1.2497    1.6835 H         1 <0>         0.4181
     33 H5          1.9108    1.1889    2.1486 H         1 <0>         0.4085
     34 H6          5.6429   -2.2033   -0.3890 H         1 <0>         0.1385
     35 H7          6.4065    2.5708   -0.7467 H         1 <0>         0.1939
     36 H8          9.6888   -0.1737   -1.4410 H         1 <0>         0.0844
     37 H9         10.0023   -0.9048    0.1629 H         1 <0>         0.0637
     38 H10        10.1822   -2.2308   -2.5981 H         1 <0>         0.0789
     39 H11        11.3715   -2.2830   -1.2537 H         1 <0>         0.0880
     40 H12         9.6065   -4.3343   -1.5709 H         1 <0>         0.0889
     41 H13         9.9766   -3.7268    0.0762 H         1 <0>         0.0817
     42 H14         7.5228   -3.2922   -1.6108 H         1 <0>         0.0869
     43 H15         8.5300   -2.0219    1.7381 H         1 <0>         0.1284
     44 H16         7.5408   -2.8387    3.8394 H         1 <0>         0.1347
     45 H17         5.3844   -5.8124    1.6644 H         1 <0>         0.1354
     46 H18         6.3678   -4.9863   -0.4361 H         1 <0>         0.1340
@<TRIPOS>BOND
     1    1    9 2
     2    1    2 1
     3    1   29 1
     4    2    3 2
     5    2   30 1
     6    3    4 1
     7    4    8 1
     8    4    5 2
     9    5    6 1
    10    5   11 1
    11    6    7 2
    12    6   10 1
    13    7    8 1
    14    8    9 1
    15    9   31 1
    16   10   32 1
    17   10   33 1
    18   11   16 ar
    19   11   12 ar
    20   12   13 ar
    21   12   34 1
    22   13   14 ar
    23   13   17 1
    24   14   15 ar
    25   15   16 ar
    26   15   35 1
    27   17   21 1
    28   17   18 1
    29   18   19 1
    30   18   36 1
    31   18   37 1
    32   19   20 1
    33   19   38 1
    34   19   39 1
    35   20   21 1
    36   20   40 1
    37   20   41 1
    38   21   22 1
    39   21   42 1
    40   22   27 ar
    41   22   23 ar
    42   23   24 ar
    43   23   43 1
    44   24   25 ar
    45   24   44 1
    46   25   26 ar
    47   25   28 1
    48   26   27 ar
    49   26   45 1
    50   27   46 1
@<TRIPOS>MOLECULE
CHEMBL205098
   47    50     0     0     0
SMALL
USER_CHARGES

@<TRIPOS>ATOM
      1 C1          3.7462   -3.8402   -1.9199 C.3       1 <0>         0.0258
      2 O1          2.5133   -3.5077   -1.2784 O.3       1 <0>        -0.2996
      3 C2          1.8845   -2.3771   -1.6976 C.ar      1 <0>         0.1696
      4 C3          2.4406   -1.6087   -2.7083 C.ar      1 <0>        -0.2291
      5 C4          1.7988   -0.4544   -3.1364 C.ar      1 <0>         0.2463
      6 C5          0.6000   -0.0685   -2.5521 C.ar      1 <0>        -0.2650
      7 C6          0.0429   -0.8356   -1.5409 C.ar      1 <0>         0.1709
      8 C7          0.6813   -1.9947   -1.1165 C.ar      1 <0>         0.0085
      9 O2          0.1313   -2.7523   -0.1276 O.3       1 <0>        -0.3105
     10 C8          0.5051   -2.4371    1.2152 C.3       1 <0>         0.0342
     11 O3         -1.1310   -0.4569   -0.9681 O.3       1 <0>        -0.2997
     12 C9         -1.7347    0.7421   -1.4578 C.3       1 <0>         0.0242
     13 N1          2.3611    0.3211   -4.1573 N.pl3     1 <0>        -0.6348
     14 C10         3.0666   -0.2891   -5.1825 C.ar      1 <0>         0.5763
     15 N2          3.0962   -1.6155   -5.2374 N.ar      1 <0>        -0.5568
     16 C11         3.7547   -2.2448   -6.1956 C.ar      1 <0>         0.2406
     17 C12         4.4230   -1.4859   -7.1554 C.ar      1 <0>        -0.2541
     18 C13         5.2361   -1.7905   -8.3342 C.2       1 <0>        -0.1355
     19 C14         5.6101   -0.6161   -8.8645 C.2       1 <0>         0.0374
     20 N3          5.0998    0.4181   -8.1168 N.pl3     1 <0>        -0.4110
     21 C15         4.3709   -0.0789   -7.0671 C.ar      1 <0>         0.3802
     22 N4          3.6812    0.4711   -6.0734 N.ar      1 <0>        -0.5407
     23 C16         5.2947    1.7742   -8.3864 C.ar      1 <0>         0.3454
     24 C17         6.0513    2.1554   -9.4883 C.ar      1 <0>        -0.1887
     25 C18         6.2367    3.5026   -9.7440 C.ar      1 <0>        -0.0471
     26 C19         5.6562    4.4257   -8.8848 C.ar      1 <0>        -0.1895
     27 C20         4.9168    3.9758   -7.8089 C.ar      1 <0>         0.1347
     28 N5          4.7528    2.6846   -7.5935 N.ar      1 <0>        -0.4788
     29 H1          3.5744   -3.9791   -2.9873 H         1 <0>         0.0623
     30 H2          4.4633   -3.0332   -1.7692 H         1 <0>         0.0531
     31 H3          4.1412   -4.7618   -1.4924 H         1 <0>         0.1018
     32 H4          3.3735   -1.9079   -3.1628 H         1 <0>         0.1490
     33 H5          0.1015    0.8297   -2.8854 H         1 <0>         0.1372
     34 H6         -0.0026   -3.1141    1.9022 H         1 <0>         0.0910
     35 H7          1.5837   -2.5472    1.3274 H         1 <0>         0.0430
     36 H8          0.2194   -1.4095    1.4402 H         1 <0>         0.0428
     37 H9         -1.0528    1.5793   -1.3090 H         1 <0>         0.0568
     38 H10        -1.9494    0.6329   -2.5208 H         1 <0>         0.0579
     39 H11        -2.6626    0.9288   -0.9170 H         1 <0>         0.1032
     40 H12         2.2569    1.2854   -4.1473 H         1 <0>         0.4257
     41 H13         3.7749   -3.3239   -6.2339 H         1 <0>         0.1775
     42 H14         5.4872   -2.7729   -8.7058 H         1 <0>         0.1655
     43 H15         6.2213   -0.5007   -9.7474 H         1 <0>         0.1849
     44 H16         6.4890    1.4101  -10.1360 H         1 <0>         0.1416
     45 H17         6.8200    3.8285  -10.5925 H         1 <0>         0.1452
     46 H18         5.7819    5.4847   -9.0559 H         1 <0>         0.1427
     47 H19         4.4633    4.6901   -7.1377 H         1 <0>         0.1651
@<TRIPOS>BOND
     1    1    2 1
     2    1   29 1
     3    1   30 1
     4    1   31 1
     5    2    3 1
     6    3    8 ar
     7    3    4 ar
     8    4    5 ar
     9    4   32 1
    10    5    6 ar
    11    5   13 1
    12    6    7 ar
    13    6   33 1
    14    7    8 ar
    15    7   11 1
    16    8    9 1
    17    9   10 1
    18   10   34 1
    19   10   35 1
    20   10   36 1
    21   11   12 1
    22   12   37 1
    23   12   38 1
    24   12   39 1
    25   13   14 1
    26   13   40 1
    27   14   22 ar
    28   14   15 ar
    29   15   16 ar
    30   16   17 ar
    31   16   41 1
    32   17   21 ar
    33   17   18 1
    34   18   19 2
    35   18   42 1
    36   19   20 1
    37   19   43 1
    38   20   21 1
    39   20   23 1
    40   21   22 ar
    41   23   28 ar
    42   23   24 ar
    43   24   25 ar
    44   24   44 1
    45   25   26 ar
    46   25   45 1
    47   26   27 ar
    48   26   46 1
    49   27   28 ar
    50   27   47 1
@<TRIPOS>MOLECULE
CHEMBL589633
   41    45     0     0     0
SMALL
USER_CHARGES

@<TRIPOS>ATOM
      1 C1         -0.2169    1.1582   -0.0237 C.ar      1 <0>        -0.1141
      2 C2          0.9590    1.8810    0.0967 C.ar      1 <0>        -0.1090
      3 C3          2.1683    1.2296    0.0998 C.ar      1 <0>        -0.0892
      4 C4          2.2375   -0.1740   -0.0121 C.ar      1 <0>        -0.0796
      5 C5          1.0554   -0.8993   -0.1002 C.ar      1 <0>        -0.0077
      6 C6         -0.1719   -0.2122   -0.1227 C.ar      1 <0>        -0.0999
      7 C7          0.9652   -2.3676   -0.1437 C.ar      1 <0>         0.0437
      8 C8          0.0618   -3.0035    0.7292 C.ar      1 <0>        -0.1874
      9 C9         -0.0874   -4.3742    0.7055 C.ar      1 <0>         0.1289
     10 N1          0.5785   -5.1658   -0.1194 N.ar      1 <0>        -0.4799
     11 C10         1.4517   -4.6245   -0.9623 C.ar      1 <0>         0.2909
     12 C11         1.6850   -3.2208   -0.9769 C.ar      1 <0>        -0.1233
     13 C12         2.7423   -3.0222   -1.9582 C.2       1 <0>        -0.1904
     14 C13         3.0352   -4.2135   -2.4921 C.2       1 <0>         0.0937
     15 N2          2.2529   -5.1825   -1.9131 N.pl3     1 <0>        -0.5767
     16 H1          2.2687   -6.1241   -2.1457 H         1 <0>         0.4267
     17 C14         3.3855   -1.6871   -2.2663 C.3       1 <0>         0.2578
     18 N3          4.1655   -1.3322   -1.0661 N.am      1 <0>        -0.6997
     19 C15         3.5859   -0.7425   -0.0343 C.2       1 <0>         0.5666
     20 O1          4.2337   -0.6650    0.9916 O.2       1 <0>        -0.5417
     21 C16         2.3263   -0.6467   -2.5245 C.ar      1 <0>        -0.1474
     22 C17         1.0194   -1.0345   -2.7550 C.ar      1 <0>        -0.0474
     23 C18         0.0465   -0.0830   -2.9919 C.ar      1 <0>        -0.1521
     24 C19         0.3804    1.2639   -2.9987 C.ar      1 <0>         0.1527
     25 C20         1.6912    1.6526   -2.7674 C.ar      1 <0>        -0.1787
     26 C21         2.6620    0.6967   -2.5249 C.ar      1 <0>         0.1362
     27 F1          3.9385    1.0740   -2.2934 F         1 <0>        -0.1296
     28 O2         -0.5760    2.2008   -3.2321 O.3       1 <0>        -0.4915
     29 H2         -1.1677    1.6704   -0.0353 H         1 <0>         0.1309
     30 H3          0.9248    2.9566    0.1879 H         1 <0>         0.1314
     31 H4          3.0801    1.8016    0.1889 H         1 <0>         0.1274
     32 H5         -1.0921   -0.7693   -0.2196 H         1 <0>         0.1308
     33 H6         -0.5185   -2.4133    1.4229 H         1 <0>         0.1400
     34 H7         -0.7840   -4.8252    1.3967 H         1 <0>         0.1617
     35 H8          3.7733   -4.3865   -3.2613 H         1 <0>         0.1856
     36 H9          4.0444   -1.7773   -3.1300 H         1 <0>         0.1189
     37 H10         5.1138   -1.5339   -1.0331 H         1 <0>         0.4127
     38 H11         0.7590   -2.0826   -2.7503 H         1 <0>         0.1394
     39 H12        -0.9740   -0.3874   -3.1723 H         1 <0>         0.1350
     40 H13         1.9534    2.7003   -2.7726 H         1 <0>         0.1415
     41 H14        -1.0195    2.5176   -2.4333 H         1 <0>         0.3925
@<TRIPOS>BOND
     1    1    6 ar
     2    1    2 ar
     3    1   29 1
     4    2    3 ar
     5    2   30 1
     6    3    4 ar
     7    3   31 1
     8    4   19 1
     9    4    5 ar
    10    5    6 ar
    11    5    7 1
    12    6   32 1
    13    7   12 ar
    14    7    8 ar
    15    8    9 ar
    16    8   33 1
    17    9   10 ar
    18    9   34 1
    19   10   11 ar
    20   11   15 1
    21   11   12 ar
    22   12   13 1
    23   13   14 2
    24   13   17 1
    25   14   15 1
    26   14   35 1
    27   15   16 1
    28   17   18 1
    29   17   21 1
    30   17   36 1
    31   18   19 am
    32   18   37 1
    33   19   20 2
    34   21   26 ar
    35   21   22 ar
    36   22   23 ar
    37   22   38 1
    38   23   24 ar
    39   23   39 1
    40   24   25 ar
    41   24   28 1
    42   25   26 ar
    43   25   40 1
    44   26   27 1
    45   28   41 1
@<TRIPOS>MOLECULE
CHEMBL589633__1
   41    45     0     0     0
SMALL
USER_CHARGES

@<TRIPOS>ATOM
      1 C1          0.1607    1.5532    0.0030 C.ar      1 <0>        -0.0925
      2 C2          1.3607    2.2381    0.1054 C.ar      1 <0>        -0.1043
      3 C3          2.5464    1.5454    0.1373 C.ar      1 <0>        -0.0918
      4 C4          2.5674    0.1378    0.0604 C.ar      1 <0>        -0.0852
      5 C5          1.3646   -0.5450   -0.0763 C.ar      1 <0>        -0.0103
      6 C6          0.1599    0.1813   -0.0850 C.ar      1 <0>        -0.1035
      7 C7          1.2341   -2.0007   -0.2485 C.ar      1 <0>         0.0466
      8 C8          0.4136   -2.4757   -1.2893 C.ar      1 <0>        -0.1881
      9 C9          0.2308   -3.8299   -1.4747 C.ar      1 <0>         0.1293
     10 N1          0.7877   -4.7524   -0.7068 N.ar      1 <0>        -0.4812
     11 C10         1.5782   -4.3659    0.2889 C.ar      1 <0>         0.2906
     12 C11         1.8400   -2.9875    0.5263 C.ar      1 <0>        -0.1245
     13 C12         2.7883   -2.9662    1.6305 C.2       1 <0>        -0.1896
     14 C13         2.9957   -4.2300    2.0178 C.2       1 <0>         0.0919
     15 N2          2.2607   -5.0797    1.2278 N.pl3     1 <0>        -0.5769
     16 H1          2.2315   -6.0445    1.3242 H         1 <0>         0.4262
     17 C14         3.4251   -1.7121    2.1903 C.3       1 <0>         0.2580
     18 N3          4.3403   -1.2263    1.1406 N.am      1 <0>        -0.7007
     19 C15         3.8903   -0.4818    0.1448 C.2       1 <0>         0.5677
     20 O1          4.6468   -0.2943   -0.7882 O.2       1 <0>        -0.5423
     21 C16         2.3689   -0.6768    2.4795 C.ar      1 <0>        -0.1462
     22 C17         1.0364   -1.0430    2.5212 C.ar      1 <0>        -0.0469
     23 C18         0.0661   -0.0962    2.7860 C.ar      1 <0>        -0.1539
     24 C19         0.4285    1.2244    3.0106 C.ar      1 <0>         0.1529
     25 C20         1.7651    1.5915    2.9688 C.ar      1 <0>        -0.1803
     26 C21         2.7347    0.6389    2.7087 C.ar      1 <0>         0.1367
     27 F1          4.0378    0.9937    2.6734 F         1 <0>        -0.1297
     28 O2         -0.5253    2.1568    3.2708 O.3       1 <0>        -0.4920
     29 H2         -0.7730    2.0960   -0.0033 H         1 <0>         0.1299
     30 H3          1.3639    3.3168    0.1598 H         1 <0>         0.1290
     31 H4          3.4767    2.0872    0.2223 H         1 <0>         0.1255
     32 H5         -0.7792   -0.3465   -0.1618 H         1 <0>         0.1285
     33 H6         -0.0763   -1.7740   -1.9480 H         1 <0>         0.1400
     34 H7         -0.3995   -4.1545   -2.2894 H         1 <0>         0.1615
     35 H8          3.6424   -4.5351    2.8271 H         1 <0>         0.1851
     36 H9          3.9829   -1.9459    3.0971 H         1 <0>         0.1181
     37 H10         5.2820   -1.4554    1.1811 H         1 <0>         0.4122
     38 H11         0.7537   -2.0706    2.3461 H         1 <0>         0.1390
     39 H12        -0.9744   -0.3836    2.8179 H         1 <0>         0.1344
     40 H13         2.0493    2.6187    3.1429 H         1 <0>         0.1410
     41 H14        -0.7287    2.2597    4.2106 H         1 <0>         0.3956
@<TRIPOS>BOND
     1    1    6 ar
     2    1    2 ar
     3    1   29 1
     4    2    3 ar
     5    2   30 1
     6    3    4 ar
     7    3   31 1
     8    4   19 1
     9    4    5 ar
    10    5    6 ar
    11    5    7 1
    12    6   32 1
    13    7   12 ar
    14    7    8 ar
    15    8    9 ar
    16    8   33 1
    17    9   10 ar
    18    9   34 1
    19   10   11 ar
    20   11   15 1
    21   11   12 ar
    22   12   13 1
    23   13   14 2
    24   13   17 1
    25   14   15 1
    26   14   35 1
    27   15   16 1
    28   17   18 1
    29   17   21 1
    30   17   36 1
    31   18   19 am
    32   18   37 1
    33   19   20 2
    34   21   26 ar
    35   21   22 ar
    36   22   23 ar
    37   22   38 1
    38   23   24 ar
    39   23   39 1
    40   24   25 ar
    41   24   28 1
    42   25   26 ar
    43   25   40 1
    44   26   27 1
    45   28   41 1
@<TRIPOS>MOLECULE
CHEMBL568788
   40    42     0     0     0
SMALL
USER_CHARGES

@<TRIPOS>ATOM
      1 C1          0.1267   -8.2347   -1.0330 C.3       1 <0>        -0.0966
      2 C2          0.1051   -6.7603   -0.7219 C.2       1 <0>         0.0933
      3 C3          0.0792   -5.7559   -1.6271 C.2       1 <0>        -0.2720
      4 C4          0.0659   -4.5412   -0.9225 C.2       1 <0>         0.3070
      5 N1          0.0834   -4.8154    0.3608 N.2       1 <0>        -0.3224
      6 N2          0.1024   -6.2081    0.5096 N.pl3     1 <0>        -0.4669
      7 H1          0.1140   -6.6911    1.3507 H         1 <0>         0.4407
      8 N3          0.0392   -3.2613   -1.4899 N.pl3     1 <0>        -0.6023
      9 C5          0.1351   -3.1105   -2.8641 C.ar      1 <0>         0.4338
     10 C6          0.2262   -1.8317   -3.4203 C.ar      1 <0>        -0.0361
     11 N4          0.3175   -1.6812   -4.7239 N.ar      1 <0>        -0.3281
     12 C7          0.3239   -2.7493   -5.5206 C.ar      1 <0>         0.0108
     13 C8          0.2329   -4.0368   -4.9647 C.ar      1 <0>         0.4548
     14 N5          0.1457   -4.1814   -3.6485 N.ar      1 <0>        -0.5420
     15 N6          0.2386   -5.1501   -5.7866 N.pl3     1 <0>        -0.6867
     16 C9          0.1436   -6.4910   -5.2043 C.3       1 <0>         0.2014
     17 C10         1.5379   -6.9687   -4.7937 C.3       1 <0>        -0.1639
     18 C11        -0.4334   -7.4409   -6.2221 C.ar      1 <0>         0.1053
     19 C12        -1.0951   -8.5776   -5.7967 C.ar      1 <0>        -0.1288
     20 C13        -1.6225   -9.4455   -6.7398 C.ar      1 <0>        -0.1018
     21 C14        -1.4636   -9.1358   -8.0843 C.ar      1 <0>         0.0515
     22 C15        -0.7886   -7.9789   -8.4337 C.ar      1 <0>         0.0852
     23 N7         -0.3053   -7.1748   -7.5070 N.ar      1 <0>        -0.4558
     24 F1         -1.9608   -9.9530   -9.0384 F         1 <0>        -0.1256
     25 C16         0.4228   -2.5856   -6.9398 C.1       1 <0>         0.2727
     26 N8          0.5013   -2.4557   -8.0656 N.1       1 <0>        -0.3966
     27 H2         -0.8956   -8.6063   -1.1026 H         1 <0>         0.0828
     28 H3          0.6382   -8.3984   -1.9815 H         1 <0>         0.0874
     29 H4          0.6531   -8.7657   -0.2399 H         1 <0>         0.0732
     30 H5          0.0708   -5.8681   -2.7012 H         1 <0>         0.1828
     31 H6         -0.0465   -2.4803   -0.9211 H         1 <0>         0.4323
     32 H7          0.2213   -0.9638   -2.7776 H         1 <0>         0.1794
     33 H8          0.3054   -5.0426   -6.7483 H         1 <0>         0.4259
     34 H9         -0.5032   -6.4613   -4.3274 H         1 <0>         0.1146
     35 H10         2.1846   -6.9983   -5.6706 H         1 <0>         0.0648
     36 H11         1.9552   -6.2816   -4.0576 H         1 <0>         0.0771
     37 H12         1.4672   -7.9664   -4.3605 H         1 <0>         0.0730
     38 H13        -1.1996   -8.7870   -4.7424 H         1 <0>         0.1508
     39 H14        -2.1441  -10.3412   -6.4365 H         1 <0>         0.1530
     40 H15        -0.6602   -7.7299   -9.4767 H         1 <0>         0.1721
@<TRIPOS>BOND
     1    1    2 1
     2    1   27 1
     3    1   28 1
     4    1   29 1
     5    2    6 1
     6    2    3 2
     7    3    4 1
     8    3   30 1
     9    4    5 2
    10    4    8 1
    11    5    6 1
    12    6    7 1
    13    8    9 1
    14    8   31 1
    15    9   14 ar
    16    9   10 ar
    17   10   11 ar
    18   10   32 1
    19   11   12 ar
    20   12   13 ar
    21   12   25 1
    22   13   14 ar
    23   13   15 1
    24   15   16 1
    25   15   33 1
    26   16   17 1
    27   16   18 1
    28   16   34 1
    29   17   35 1
    30   17   36 1
    31   17   37 1
    32   18   23 ar
    33   18   19 ar
    34   19   20 ar
    35   19   38 1
    36   20   21 ar
    37   20   39 1
    38   21   22 ar
    39   21   24 1
    40   22   23 ar
    41   22   40 1
    42   25   26 3
@<TRIPOS>MOLECULE
CHEMBL568788__1
   40    42     0     0     0
SMALL
USER_CHARGES

@<TRIPOS>ATOM
      1 C1          0.1079   -8.2102    0.9410 C.3       1 <0>        -0.0760
      2 C2          0.0855   -6.7324    0.6468 C.2       1 <0>         0.0866
      3 C3          0.0917   -5.7097    1.5989 C.2       1 <0>        -0.2788
      4 C4          0.0656   -4.5210    0.9350 C.2       1 <0>         0.3123
      5 N1          0.0437   -4.7971   -0.3946 N.pl3     1 <0>        -0.4946
      6 N2          0.0625   -6.1898   -0.5435 N.2       1 <0>        -0.2843
      7 H1          0.0223   -4.1458   -1.1132 H         1 <0>         0.4363
      8 N3          0.0614   -3.2541    1.5137 N.pl3     1 <0>        -0.6184
      9 C5         -0.0313   -3.1212    2.8902 C.ar      1 <0>         0.4293
     10 C6         -0.1540   -1.8516    3.4611 C.ar      1 <0>        -0.0352
     11 N4         -0.2420   -1.7181    4.7668 N.ar      1 <0>        -0.3279
     12 C7         -0.2148   -2.7947    5.5515 C.ar      1 <0>         0.0160
     13 C8         -0.0919   -4.0731    4.9806 C.ar      1 <0>         0.4549
     14 N5         -0.0086   -4.2006    3.6625 N.ar      1 <0>        -0.5372
     15 N6         -0.0629   -5.1951    5.7900 N.pl3     1 <0>        -0.6846
     16 C9          0.0653   -6.5264    5.1921 C.3       1 <0>         0.2010
     17 C10        -1.3178   -7.0372    4.7833 C.3       1 <0>        -0.1633
     18 C11         0.6732   -7.4716    6.1962 C.ar      1 <0>         0.1046
     19 C12         1.3633   -8.5851    5.7548 C.ar      1 <0>        -0.1277
     20 C13         1.9190   -9.4487    6.6853 C.ar      1 <0>        -0.1015
     21 C14         1.7590   -9.1585    8.0340 C.ar      1 <0>         0.0517
     22 C15         1.0547   -8.0243    8.3998 C.ar      1 <0>         0.0846
     23 N7          0.5449   -7.2233    7.4847 N.ar      1 <0>        -0.4566
     24 F1          2.2832   -9.9724    8.9763 F         1 <0>        -0.1256
     25 C16        -0.3100   -2.6495    6.9730 C.1       1 <0>         0.2708
     26 N8         -0.3856   -2.5343    8.1006 N.1       1 <0>        -0.3926
     27 H2         -0.9141   -8.5783    1.0313 H         1 <0>         0.0791
     28 H3          0.6126   -8.7346    0.1295 H         1 <0>         0.0739
     29 H4          0.6415   -8.3867    1.8749 H         1 <0>         0.0772
     30 H5          0.1131   -5.8391    2.6709 H         1 <0>         0.1835
     31 H6          0.1232   -2.4647    0.9533 H         1 <0>         0.4281
     32 H7         -0.1764   -0.9768    2.8281 H         1 <0>         0.1787
     33 H8         -0.1275   -5.1002    6.7532 H         1 <0>         0.4263
     34 H9          0.7062   -6.4695    4.3124 H         1 <0>         0.1155
     35 H10        -1.9588   -7.0942    5.6630 H         1 <0>         0.0640
     36 H11        -1.7575   -6.3536    4.0570 H         1 <0>         0.0766
     37 H12        -1.2224   -8.0278    4.3384 H         1 <0>         0.0755
     38 H13         1.4678   -8.7798    4.6976 H         1 <0>         0.1520
     39 H14         2.4631  -10.3265    6.3693 H         1 <0>         0.1535
     40 H15         0.9252   -7.7905    9.4462 H         1 <0>         0.1719
@<TRIPOS>BOND
     1    1    2 1
     2    1   27 1
     3    1   28 1
     4    1   29 1
     5    2    3 1
     6    2    6 2
     7    3   30 1
     8    3    4 2
     9    4    8 1
    10    4    5 1
    11    5    7 1
    12    5    6 1
    13    8    9 1
    14    8   31 1
    15    9   14 ar
    16    9   10 ar
    17   10   11 ar
    18   10   32 1
    19   11   12 ar
    20   12   13 ar
    21   12   25 1
    22   13   14 ar
    23   13   15 1
    24   15   16 1
    25   15   33 1
    26   16   17 1
    27   16   18 1
    28   16   34 1
    29   17   35 1
    30   17   36 1
    31   17   37 1
    32   18   23 ar
    33   18   19 ar
    34   19   20 ar
    35   19   38 1
    36   20   21 ar
    37   20   39 1
    38   21   22 ar
    39   21   24 1
    40   22   23 ar
    41   22   40 1
    42   25   26 3
@<TRIPOS>MOLECULE
CHEMBL568788__2
   40    42     0     0     0
SMALL
USER_CHARGES

@<TRIPOS>ATOM
      1 C1          0.0231   -8.2359   -1.0377 C.3       1 <0>        -0.0954
      2 C2          0.0407   -6.7617   -0.7253 C.2       1 <0>         0.0930
      3 C3          0.0202   -5.7561   -1.6293 C.2       1 <0>        -0.2718
      4 C4          0.0478   -4.5420   -0.9239 C.2       1 <0>         0.3070
      5 N1          0.0835   -4.8178    0.3588 N.2       1 <0>        -0.3222
      6 N2          0.0738   -6.2108    0.5064 N.pl3     1 <0>        -0.4668
      7 H1          0.0905   -6.6948    1.3468 H         1 <0>         0.4408
      8 N3          0.0392   -3.2613   -1.4899 N.pl3     1 <0>        -0.6022
      9 C5          0.1351   -3.1105   -2.8641 C.ar      1 <0>         0.4338
     10 C6          0.2262   -1.8317   -3.4203 C.ar      1 <0>        -0.0362
     11 N4          0.3175   -1.6812   -4.7239 N.ar      1 <0>        -0.3280
     12 C7          0.3239   -2.7493   -5.5206 C.ar      1 <0>         0.0106
     13 C8          0.2329   -4.0368   -4.9647 C.ar      1 <0>         0.4549
     14 N5          0.1457   -4.1814   -3.6485 N.ar      1 <0>        -0.5421
     15 N6          0.2386   -5.1501   -5.7866 N.pl3     1 <0>        -0.6867
     16 C9          0.1436   -6.4910   -5.2043 C.3       1 <0>         0.2008
     17 C10        -1.3275   -6.8463   -4.9793 C.3       1 <0>        -0.1635
     18 C11         0.7640   -7.4921   -6.1445 C.ar      1 <0>         0.1055
     19 C12         1.2564   -8.6834   -5.6453 C.ar      1 <0>        -0.1290
     20 C13         1.8252   -9.5980   -6.5174 C.ar      1 <0>        -0.1016
     21 C14         1.8779   -9.2784   -7.8679 C.ar      1 <0>         0.0514
     22 C15         1.3641   -8.0656   -8.2935 C.ar      1 <0>         0.0854
     23 N7          0.8255   -7.2231   -7.4338 N.ar      1 <0>        -0.4558
     24 F1          2.4238  -10.1395   -8.7543 F         1 <0>        -0.1256
     25 C16         0.4228   -2.5856   -6.9398 C.1       1 <0>         0.2727
     26 N8          0.5013   -2.4557   -8.0656 N.1       1 <0>        -0.3966
     27 H2         -1.0085   -8.5843   -1.0881 H         1 <0>         0.0837
     28 H3          0.5127   -8.4101   -1.9958 H         1 <0>         0.0855
     29 H4          0.5523   -8.7794   -0.2550 H         1 <0>         0.0731
     30 H5         -0.0111   -5.8669   -2.7031 H         1 <0>         0.1826
     31 H6         -0.0339   -2.4797   -0.9202 H         1 <0>         0.4323
     32 H7          0.2213   -0.9638   -2.7776 H         1 <0>         0.1794
     33 H8          0.3054   -5.0426   -6.7483 H         1 <0>         0.4259
     34 H9          0.6722   -6.5116   -4.2513 H         1 <0>         0.1149
     35 H10        -1.8561   -6.8257   -5.9323 H         1 <0>         0.0646
     36 H11        -1.3982   -7.8440   -4.5460 H         1 <0>         0.0735
     37 H12        -1.7762   -6.1222   -4.2992 H         1 <0>         0.0765
     38 H13         1.1988   -8.8985   -4.5885 H         1 <0>         0.1502
     39 H14         2.2183  -10.5366   -6.1555 H         1 <0>         0.1531
     40 H15         1.4007   -7.8084   -9.3418 H         1 <0>         0.1722
@<TRIPOS>BOND
     1    1    2 1
     2    1   27 1
     3    1   28 1
     4    1   29 1
     5    2    6 1
     6    2    3 2
     7    3    4 1
     8    3   30 1
     9    4    5 2
    10    4    8 1
    11    5    6 1
    12    6    7 1
    13    8    9 1
    14    8   31 1
    15    9   14 ar
    16    9   10 ar
    17   10   11 ar
    18   10   32 1
    19   11   12 ar
    20   12   13 ar
    21   12   25 1
    22   13   14 ar
    23   13   15 1
    24   15   16 1
    25   15   33 1
    26   16   17 1
    27   16   18 1
    28   16   34 1
    29   17   35 1
    30   17   36 1
    31   17   37 1
    32   18   23 ar
    33   18   19 ar
    34   19   20 ar
    35   19   38 1
    36   20   21 ar
    37   20   39 1
    38   21   22 ar
    39   21   24 1
    40   22   23 ar
    41   22   40 1
    42   25   26 3
@<TRIPOS>MOLECULE
CHEMBL568788__3
   40    42     0     0     0
SMALL
USER_CHARGES

@<TRIPOS>ATOM
      1 C1          0.2026   -8.2088    0.9441 C.3       1 <0>        -0.0770
      2 C2          0.1422   -6.7322    0.6492 C.2       1 <0>         0.0864
      3 C3          0.1463   -5.7084    1.6002 C.2       1 <0>        -0.2786
      4 C4          0.0808   -4.5213    0.9361 C.2       1 <0>         0.3123
      5 N1          0.0372   -4.7995   -0.3926 N.pl3     1 <0>        -0.4945
      6 N2          0.0828   -6.1916   -0.5407 N.2       1 <0>        -0.2841
      7 H1         -0.0133   -4.1498   -1.1111 H         1 <0>         0.4364
      8 N3          0.0614   -3.2541    1.5137 N.pl3     1 <0>        -0.6183
      9 C5         -0.0313   -3.1212    2.8902 C.ar      1 <0>         0.4293
     10 C6         -0.1540   -1.8516    3.4611 C.ar      1 <0>        -0.0354
     11 N4         -0.2420   -1.7181    4.7668 N.ar      1 <0>        -0.3279
     12 C7         -0.2148   -2.7947    5.5515 C.ar      1 <0>         0.0158
     13 C8         -0.0919   -4.0731    4.9806 C.ar      1 <0>         0.4551
     14 N5         -0.0086   -4.2006    3.6625 N.ar      1 <0>        -0.5373
     15 N6         -0.0629   -5.1951    5.7900 N.pl3     1 <0>        -0.6845
     16 C9          0.0653   -6.5264    5.1921 C.3       1 <0>         0.2001
     17 C10         1.5442   -6.8391    4.9557 C.3       1 <0>        -0.1633
     18 C11        -0.5227   -7.5544    6.1242 C.ar      1 <0>         0.1047
     19 C12        -0.9853   -8.7530    5.6140 C.ar      1 <0>        -0.1276
     20 C13        -1.5244   -9.6924    6.4786 C.ar      1 <0>        -0.1015
     21 C14        -1.5786   -9.3894    7.8329 C.ar      1 <0>         0.0517
     22 C15        -1.0955   -8.1679    8.2695 C.ar      1 <0>         0.0845
     23 N7         -0.5846   -7.3015    7.4167 N.ar      1 <0>        -0.4567
     24 F1         -2.0962  -10.2748    8.7123 F         1 <0>        -0.1257
     25 C16        -0.3100   -2.6495    6.9730 C.1       1 <0>         0.2709
     26 N8         -0.3856   -2.5343    8.1006 N.1       1 <0>        -0.3927
     27 H2         -0.8092   -8.5986    1.0560 H         1 <0>         0.0784
     28 H3          0.7014   -8.7233    0.1227 H         1 <0>         0.0743
     29 H4          0.7592   -8.3726    1.8669 H         1 <0>         0.0786
     30 H5          0.1928   -5.8359    2.6717 H         1 <0>         0.1833
     31 H6          0.1126   -2.4645    0.9525 H         1 <0>         0.4282
     32 H7         -0.1764   -0.9768    2.8281 H         1 <0>         0.1787
     33 H8         -0.1275   -5.1002    6.7532 H         1 <0>         0.4263
     34 H9         -0.4677   -6.5507    4.2416 H         1 <0>         0.1168
     35 H10         2.0772   -6.8148    5.9062 H         1 <0>         0.0643
     36 H11         1.6396   -7.8296    4.5109 H         1 <0>         0.0752
     37 H12         1.9695   -6.0956    4.2816 H         1 <0>         0.0760
     38 H13        -0.9276   -8.9548    4.5546 H         1 <0>         0.1523
     39 H14        -1.8939  -10.6372    6.1082 H         1 <0>         0.1535
     40 H15        -1.1335   -7.9235    9.3208 H         1 <0>         0.1718
@<TRIPOS>BOND
     1    1    2 1
     2    1   27 1
     3    1   28 1
     4    1   29 1
     5    2    3 1
     6    2    6 2
     7    3   30 1
     8    3    4 2
     9    4    8 1
    10    4    5 1
    11    5    7 1
    12    5    6 1
    13    8    9 1
    14    8   31 1
    15    9   14 ar
    16    9   10 ar
    17   10   11 ar
    18   10   32 1
    19   11   12 ar
    20   12   13 ar
    21   12   25 1
    22   13   14 ar
    23   13   15 1
    24   15   16 1
    25   15   33 1
    26   16   17 1
    27   16   18 1
    28   16   34 1
    29   17   35 1
    30   17   36 1
    31   17   37 1
    32   18   23 ar
    33   18   19 ar
    34   19   20 ar
    35   19   38 1
    36   20   21 ar
    37   20   39 1
    38   21   22 ar
    39   21   24 1
    40   22   23 ar
    41   22   40 1
    42   25   26 3
@<TRIPOS>MOLECULE
CHEMBL386637
   65    68     0     0     0
SMALL
USER_CHARGES

@<TRIPOS>ATOM
      1 C1         -0.0328    1.4325    0.0304 C.3       1 <0>        -0.0529
      2 N1         -0.0059   -0.0361    0.0123 N.4       1 <0>        -0.3813
      3 C2         -1.3816   -0.5512    0.0190 C.3       1 <0>        -0.0538
      4 C3          0.6841   -0.4984   -1.1994 C.3       1 <0>        -0.0040
      5 H1          0.1557   -0.1340   -2.0804 H         1 <0>         0.1308
      6 C4          2.1180    0.0365   -1.2062 C.3       1 <0>        -0.1404
      7 C5          2.8275   -0.4173   -2.4840 C.3       1 <0>        -0.1350
      8 C6          2.8823   -1.9478   -2.5168 C.3       1 <0>         0.1266
      9 N2          1.5186   -2.4732   -2.3647 N.pl3     1 <0>        -0.6630
     10 C7          0.7139   -2.0299   -1.2180 C.3       1 <0>         0.1274
     11 C8          0.9957   -3.3784   -3.2944 C.ar      1 <0>         0.1510
     12 C9          1.1555   -4.7429   -3.1026 C.ar      1 <0>        -0.0952
     13 C10         0.6375   -5.6353   -4.0223 C.ar      1 <0>        -0.0791
     14 C11        -0.0407   -5.1724   -5.1349 C.ar      1 <0>        -0.1500
     15 C12        -0.2047   -3.8144   -5.3341 C.ar      1 <0>        -0.0756
     16 C13         0.3070   -2.9118   -4.4139 C.ar      1 <0>         0.1451
     17 N3          0.1369   -1.5353   -4.6108 N.am      1 <0>        -0.6638
     18 C14        -0.8923   -1.0829   -5.3541 C.2       1 <0>         0.5559
     19 O1         -1.7298   -1.8602   -5.7698 O.2       1 <0>        -0.4833
     20 C15        -1.0028    0.3569   -5.6637 C.ar      1 <0>        -0.1804
     21 C16        -0.0407    1.2489   -5.1930 C.ar      1 <0>        -0.0482
     22 C17        -0.1528    2.6063   -5.4899 C.ar      1 <0>         0.0111
     23 C18        -1.2287    3.0655   -6.2576 C.ar      1 <0>        -0.0324
     24 C19        -2.1781    2.1793   -6.7206 C.ar      1 <0>        -0.1513
     25 C20        -2.0707    0.8287   -6.4353 C.ar      1 <0>         0.1779
     26 F1         -3.0014   -0.0344   -6.8980 F         1 <0>        -0.1034
     27 C21         0.8312    3.5292   -5.0097 C.1       1 <0>        -0.1418
     28 C22         1.6379    4.2858   -4.6160 C.1       1 <0>        -0.0631
     29 C23         2.6219    5.2087   -4.1357 C.ar      1 <0>        -0.1771
     30 C24         3.7091    4.7669   -3.3701 C.ar      1 <0>         0.2277
     31 N4          4.5946    5.6502   -2.9463 N.ar      1 <0>        -0.5678
     32 C25         4.4650    6.9373   -3.2361 C.ar      1 <0>         0.5793
     33 N5          3.4511    7.3954   -3.9569 N.ar      1 <0>        -0.5638
     34 C26         2.5261    6.5766   -4.4238 C.ar      1 <0>         0.2346
     35 N6          5.4155    7.8288   -2.7721 N.pl3     1 <0>        -0.8077
     36 C27        -0.6023   -6.1514   -6.1336 C.3       1 <0>         0.5073
     37 F2         -0.3124   -7.4564   -5.7210 F         1 <0>        -0.1731
     38 F3         -1.9889   -5.9865   -6.2192 F         1 <0>        -0.1701
     39 F4         -0.0268   -5.9201   -7.3876 F         1 <0>        -0.1723
     40 H2          0.9880    1.8147    0.0254 H         1 <0>         0.1261
     41 H3         -0.5615    1.7971   -0.8503 H         1 <0>         0.1216
     42 H4         -0.5448    1.7755    0.9294 H         1 <0>         0.1279
     43 H5         -1.9104   -0.1866   -0.8617 H         1 <0>         0.1219
     44 H6         -1.3617   -1.6409    0.0056 H         1 <0>         0.1249
     45 H7         -1.8936   -0.2082    0.9181 H         1 <0>         0.1292
     46 H8          2.0994    1.1257   -1.1684 H         1 <0>         0.0917
     47 H9          2.6530   -0.3477   -0.3378 H         1 <0>         0.0940
     48 H10         2.2790   -0.0541   -3.3532 H         1 <0>         0.0653
     49 H11         3.8410   -0.0165   -2.4993 H         1 <0>         0.1025
     50 H12         3.2970   -2.2783   -3.4691 H         1 <0>         0.0901
     51 H13         3.5062   -2.3087   -1.6992 H         1 <0>         0.0729
     52 H14         1.1608   -2.3980   -0.2945 H         1 <0>         0.0801
     53 H15        -0.3017   -2.4140   -1.3134 H         1 <0>         0.0957
     54 H16         1.6850   -5.1079   -2.2349 H         1 <0>         0.1437
     55 H17         0.7632   -6.6974   -3.8716 H         1 <0>         0.1479
     56 H18        -0.7347   -3.4564   -6.2044 H         1 <0>         0.1612
     57 H19         0.7600   -0.9077   -4.2122 H         1 <0>         0.4062
     58 H20         0.7879    0.8899   -4.6005 H         1 <0>         0.1304
     59 H21        -1.3159    4.1171   -6.4878 H         1 <0>         0.1507
     60 H22        -3.0068    2.5396   -7.3121 H         1 <0>         0.1580
     61 H23         3.8210    3.7199   -3.1298 H         1 <0>         0.1696
     62 H24         1.7056    6.9562   -5.0146 H         1 <0>         0.1760
     63 H25         6.1630    7.5090   -2.2431 H         1 <0>         0.4198
     64 H26         5.3345    8.7737   -2.9758 H         1 <0>         0.4211
     65 H27         0.4836   -0.3736    0.8275 H         1 <0>         0.4267
@<TRIPOS>BOND
     1    1    2 1
     2    1   40 1
     3    1   41 1
     4    1   42 1
     5    2    3 1
     6    2    4 1
     7    2   65 1
     8    3   43 1
     9    3   44 1
    10    3   45 1
    11    4    5 1
    12    4   10 1
    13    4    6 1
    14    6    7 1
    15    6   46 1
    16    6   47 1
    17    7    8 1
    18    7   48 1
    19    7   49 1
    20    8    9 1
    21    8   50 1
    22    8   51 1
    23    9   10 1
    24    9   11 1
    25   10   52 1
    26   10   53 1
    27   11   16 ar
    28   11   12 ar
    29   12   13 ar
    30   12   54 1
    31   13   14 ar
    32   13   55 1
    33   14   15 ar
    34   14   36 1
    35   15   16 ar
    36   15   56 1
    37   16   17 1
    38   17   18 am
    39   17   57 1
    40   18   19 2
    41   18   20 1
    42   20   25 ar
    43   20   21 ar
    44   21   22 ar
    45   21   58 1
    46   22   23 ar
    47   22   27 1
    48   23   24 ar
    49   23   59 1
    50   24   25 ar
    51   24   60 1
    52   25   26 1
    53   27   28 3
    54   28   29 1
    55   29   34 ar
    56   29   30 ar
    57   30   31 ar
    58   30   61 1
    59   31   32 ar
    60   32   33 ar
    61   32   35 1
    62   33   34 ar
    63   34   62 1
    64   35   63 1
    65   35   64 1
    66   36   37 1
    67   36   38 1
    68   36   39 1
@<TRIPOS>MOLECULE
CHEMBL1080322
   41    45     0     0     0
SMALL
USER_CHARGES

@<TRIPOS>ATOM
      1 C1         -0.0168    1.3841    0.0097 C.ar      1 <0>        -0.1090
      2 C2          1.1594    2.0990    0.0023 C.ar      1 <0>        -0.0510
      3 C3          2.3821    1.4234   -0.0131 C.ar      1 <0>         0.0543
      4 C4          2.3961    0.0184   -0.0208 C.ar      1 <0>         0.0684
      5 C5          1.2016   -0.6865   -0.0135 C.ar      1 <0>        -0.0796
      6 C6          0.0021   -0.0041    0.0020 C.ar      1 <0>        -0.0210
      7 Cl1        -1.4926   -0.8871    0.0122 Cl        1 <0>        -0.0555
      8 N1          3.7300   -0.3495   -0.0355 N.pl3     1 <0>        -0.4249
      9 C7          4.4656    0.7996   -0.0363 C.2       1 <0>         0.3009
     10 N2          3.6774    1.8338   -0.0232 N.2       1 <0>        -0.4718
     11 C8          4.2289   -1.6510   -0.0473 C.ar      1 <0>         0.5616
     12 N3          3.3770   -2.6646   -0.0500 N.ar      1 <0>        -0.5142
     13 C9          3.8067   -3.9184   -0.0611 C.ar      1 <0>         0.2083
     14 C10         5.1706   -4.1560   -0.0698 C.ar      1 <0>        -0.0271
     15 C11         6.0447   -3.0609   -0.0667 C.ar      1 <0>         0.3856
     16 N4          5.5396   -1.8354   -0.0608 N.ar      1 <0>        -0.5252
     17 N5          7.3281   -3.5746   -0.0770 N.am      1 <0>        -0.5109
     18 C12         7.2532   -4.9191   -0.0861 C.2       1 <0>         0.6921
     19 O1          8.2074   -5.6739   -0.0963 O.2       1 <0>        -0.5187
     20 N6          5.9612   -5.3018   -0.0820 N.am      1 <0>        -0.6249
     21 H1          5.6382   -6.2165   -0.0863 H         1 <0>         0.4441
     22 C13         8.5637   -2.7875   -0.0783 C.3       1 <0>         0.1576
     23 C14         9.3822   -3.1207   -1.3294 C.3       1 <0>        -0.1730
     24 C15        10.7062   -2.3534   -1.2829 C.3       1 <0>         0.0672
     25 O2         11.4108   -2.6939   -0.0872 O.3       1 <0>        -0.3757
     26 C16        10.7140   -2.3617    1.1154 C.3       1 <0>         0.0672
     27 C17         9.3903   -3.1293    1.1652 C.3       1 <0>        -0.1729
     28 H2         -0.9615    1.9071    0.0260 H         1 <0>         0.1455
     29 H3          1.1372    3.1787    0.0079 H         1 <0>         0.1460
     30 H4          1.2101   -1.7664   -0.0193 H         1 <0>         0.1533
     31 H5          5.5447    0.8438   -0.0461 H         1 <0>         0.2271
     32 H6          3.1055   -4.7399   -0.0629 H         1 <0>         0.1930
     33 H7          8.3194   -1.7252   -0.0730 H         1 <0>         0.1123
     34 H8          9.5827   -4.1917   -1.3590 H         1 <0>         0.0942
     35 H9          8.8233   -2.8291   -2.2186 H         1 <0>         0.0802
     36 H10        11.3112   -2.6195   -2.1496 H         1 <0>         0.1043
     37 H11        10.5060   -1.2820   -1.2942 H         1 <0>         0.0569
     38 H12        11.3246   -2.6337    1.9763 H         1 <0>         0.1043
     39 H13        10.5139   -1.2904    1.1354 H         1 <0>         0.0569
     40 H14         8.8372   -2.8439    2.0600 H         1 <0>         0.0803
     41 H15         9.5910   -4.2004    1.1861 H         1 <0>         0.0939
@<TRIPOS>BOND
     1    1    6 ar
     2    1    2 ar
     3    1   28 1
     4    2    3 ar
     5    2   29 1
     6    3   10 1
     7    3    4 ar
     8    4    5 ar
     9    4    8 1
    10    5    6 ar
    11    5   30 1
    12    6    7 1
    13    8    9 1
    14    8   11 1
    15    9   10 2
    16    9   31 1
    17   11   16 ar
    18   11   12 ar
    19   12   13 ar
    20   13   14 ar
    21   13   32 1
    22   14   20 1
    23   14   15 ar
    24   15   16 ar
    25   15   17 1
    26   17   18 am
    27   17   22 1
    28   18   19 2
    29   18   20 am
    30   20   21 1
    31   22   27 1
    32   22   23 1
    33   22   33 1
    34   23   24 1
    35   23   34 1
    36   23   35 1
    37   24   25 1
    38   24   36 1
    39   24   37 1
    40   25   26 1
    41   26   27 1
    42   26   38 1
    43   26   39 1
    44   27   40 1
    45   27   41 1
@<TRIPOS>MOLECULE
CHEMBL574738
   69    72     0     0     0
SMALL
USER_CHARGES

@<TRIPOS>ATOM
      1 C1         -1.8363    1.8103   -1.4722 C.3       1 <0>        -0.1886
      2 C2         -1.6365    0.2944   -1.4178 C.3       1 <0>        -0.0094
      3 N1         -2.9083   -0.3550   -1.0733 N.4       1 <0>        -0.3871
      4 C3         -3.3047    0.0354    0.2861 C.3       1 <0>        -0.0052
      5 C4         -4.6389   -0.6260    0.6384 C.3       1 <0>         0.0283
      6 N2         -4.4966   -2.0863    0.5514 N.3       1 <0>        -0.5297
      7 C5         -4.0759   -2.4902   -0.7977 C.3       1 <0>         0.0223
      8 C6         -2.7463   -1.8135   -1.1381 C.3       1 <0>        -0.0008
      9 C7         -5.7431   -2.7606    0.9381 C.3       1 <0>         0.0809
     10 C8         -5.4922   -4.2403    1.0747 C.ar      1 <0>        -0.0649
     11 C9         -5.8432   -5.0974    0.0476 C.ar      1 <0>        -0.0933
     12 C10        -5.6142   -6.4537    0.1696 C.ar      1 <0>        -0.0875
     13 C11        -5.0308   -6.9569    1.3252 C.ar      1 <0>         0.1812
     14 C12        -4.6796   -6.0937    2.3545 C.ar      1 <0>        -0.1024
     15 C13        -4.9064   -4.7374    2.2242 C.ar      1 <0>        -0.1362
     16 C14        -4.5199   -3.7991    3.3383 C.3       1 <0>         0.5103
     17 F1         -3.9503   -4.5296    4.3867 F         1 <0>        -0.1764
     18 F2         -3.5923   -2.8665    2.8619 F         1 <0>        -0.1629
     19 F3         -5.6583   -3.1301    3.8007 F         1 <0>        -0.1766
     20 N3         -4.7978   -8.3308    1.4521 N.am      1 <0>        -0.6826
     21 C15        -4.4882   -9.0650    0.3651 C.2       1 <0>         0.7088
     22 O1         -4.3176   -8.5199   -0.7083 O.2       1 <0>        -0.5536
     23 N4         -4.3676  -10.4034    0.4679 N.am      1 <0>        -0.6758
     24 C16        -3.9415  -11.1553   -0.6351 C.ar      1 <0>         0.1613
     25 C17        -3.0319  -10.6150   -1.5342 C.ar      1 <0>        -0.1044
     26 C18        -2.6123  -11.3563   -2.6210 C.ar      1 <0>        -0.0920
     27 C19        -3.0999  -12.6406   -2.8148 C.ar      1 <0>         0.0838
     28 C20        -4.0092  -13.1809   -1.9170 C.ar      1 <0>        -0.0898
     29 C21        -4.4244  -12.4429   -0.8262 C.ar      1 <0>        -0.1275
     30 O2         -2.6868  -13.3700   -3.8854 O.3       1 <0>        -0.2419
     31 C22        -1.4475  -13.9171   -3.8425 C.ar      1 <0>         0.3843
     32 C23        -0.9333  -14.5842   -4.9476 C.ar      1 <0>        -0.3092
     33 C24         0.3448  -15.1285   -4.8538 C.ar      1 <0>         0.4598
     34 N5          1.0234  -14.9910   -3.7165 N.ar      1 <0>        -0.5925
     35 C25         0.5000  -14.3508   -2.6911 C.ar      1 <0>         0.3761
     36 N6         -0.7041  -13.8182   -2.7438 N.ar      1 <0>        -0.6017
     37 N7          0.9023  -15.8038   -5.9283 N.pl3     1 <0>        -0.7108
     38 C26         0.1458  -15.9492   -7.1744 C.3       1 <0>         0.0880
     39 H1         -0.8926    2.2922   -1.7278 H         1 <0>         0.1065
     40 H2         -2.5838    2.0514   -2.2280 H         1 <0>         0.0795
     41 H3         -2.1748    2.1673   -0.4995 H         1 <0>         0.0804
     42 H4         -1.2980   -0.0626   -2.3904 H         1 <0>         0.1302
     43 H5         -0.8890    0.0533   -0.6620 H         1 <0>         0.1299
     44 H6         -2.5411   -0.2873    0.9940 H         1 <0>         0.1386
     45 H7         -3.4119    1.1189    0.3362 H         1 <0>         0.1368
     46 H8         -4.9259   -0.3484    1.6526 H         1 <0>         0.1238
     47 H9         -5.4058   -0.2930   -0.0610 H         1 <0>         0.0621
     48 H10        -3.9521   -3.5727   -0.8311 H         1 <0>         0.1246
     49 H11        -4.8335   -2.1879   -1.5207 H         1 <0>         0.0622
     50 H12        -2.4395   -2.1006   -2.1439 H         1 <0>         0.1352
     51 H13        -1.9856   -2.1267   -0.4230 H         1 <0>         0.1378
     52 H14        -6.0916   -2.3617    1.8908 H         1 <0>         0.1056
     53 H15        -6.5010   -2.5896    0.1736 H         1 <0>         0.0665
     54 H16        -6.2972   -4.7056   -0.8506 H         1 <0>         0.1368
     55 H17        -5.8888   -7.1226   -0.6327 H         1 <0>         0.1503
     56 H18        -4.2257   -6.4819    3.2544 H         1 <0>         0.1458
     57 H19        -4.8592   -8.7548    2.3223 H         1 <0>         0.4154
     58 H20        -4.5758  -10.8463    1.3054 H         1 <0>         0.4130
     59 H21        -2.6528   -9.6149   -1.3838 H         1 <0>         0.1404
     60 H22        -1.9048  -10.9362   -3.3205 H         1 <0>         0.1293
     61 H23        -4.3889  -14.1804   -2.0687 H         1 <0>         0.1369
     62 H24        -5.1283  -12.8655   -0.1245 H         1 <0>         0.1361
     63 H25        -1.5103  -14.6785   -5.8557 H         1 <0>         0.1488
     64 H26         1.0758  -14.2566   -1.7822 H         1 <0>         0.2008
     65 H27         1.7933  -16.1802   -5.8551 H         1 <0>         0.4136
     66 H28         0.7419  -16.5046   -7.8986 H         1 <0>         0.0865
     67 H29        -0.7804  -16.4886   -6.9763 H         1 <0>         0.0628
     68 H30        -0.0868  -14.9627   -7.5754 H         1 <0>         0.0620
     69 H31        -3.6209   -0.0666   -1.7269 H         1 <0>         0.4195
@<TRIPOS>BOND
     1    1    2 1
     2    1   39 1
     3    1   40 1
     4    1   41 1
     5    2    3 1
     6    2   42 1
     7    2   43 1
     8    3    8 1
     9    3    4 1
    10    3   69 1
    11    4    5 1
    12    4   44 1
    13    4   45 1
    14    5    6 1
    15    5   46 1
    16    5   47 1
    17    6    7 1
    18    6    9 1
    19    7    8 1
    20    7   48 1
    21    7   49 1
    22    8   50 1
    23    8   51 1
    24    9   10 1
    25    9   52 1
    26    9   53 1
    27   10   15 ar
    28   10   11 ar
    29   11   12 ar
    30   11   54 1
    31   12   13 ar
    32   12   55 1
    33   13   14 ar
    34   13   20 1
    35   14   15 ar
    36   14   56 1
    37   15   16 1
    38   16   17 1
    39   16   18 1
    40   16   19 1
    41   20   21 am
    42   20   57 1
    43   21   22 2
    44   21   23 am
    45   23   24 1
    46   23   58 1
    47   24   29 ar
    48   24   25 ar
    49   25   26 ar
    50   25   59 1
    51   26   27 ar
    52   26   60 1
    53   27   28 ar
    54   27   30 1
    55   28   29 ar
    56   28   61 1
    57   29   62 1
    58   30   31 1
    59   31   36 ar
    60   31   32 ar
    61   32   33 ar
    62   32   63 1
    63   33   34 ar
    64   33   37 1
    65   34   35 ar
    66   35   36 ar
    67   35   64 1
    68   37   38 1
    69   37   65 1
    70   38   66 1
    71   38   67 1
    72   38   68 1
@<TRIPOS>MOLECULE
CHEMBL574738__1
   69    72     0     0     0
SMALL
USER_CHARGES

@<TRIPOS>ATOM
      1 C1          0.0759    1.5438    0.6037 C.3       1 <0>        -0.1550
      2 C2          0.0819    0.0240    0.4269 C.3       1 <0>         0.0497
      3 N1         -1.3011   -0.4668    0.3613 N.3       1 <0>        -0.5383
      4 C3         -1.9905   -0.2720    1.6446 C.3       1 <0>         0.0216
      5 C4         -3.4418   -0.7401    1.5167 C.3       1 <0>        -0.0034
      6 N2         -3.4673   -2.1590    1.1380 N.4       1 <0>        -0.3925
      7 C5         -2.7968   -2.3340   -0.1571 C.3       1 <0>        -0.0069
      8 C6         -1.3401   -1.8792   -0.0432 C.3       1 <0>         0.0266
      9 C7         -4.8606   -2.6126    1.0329 C.3       1 <0>         0.0216
     10 C8         -4.8877   -4.0989    0.7859 C.ar      1 <0>        -0.1314
     11 C9         -5.0212   -4.5819   -0.5031 C.ar      1 <0>        -0.0646
     12 C10        -5.0460   -5.9433   -0.7329 C.ar      1 <0>        -0.0851
     13 C11        -4.9367   -6.8279    0.3323 C.ar      1 <0>         0.2104
     14 C12        -4.8028   -6.3399    1.6253 C.ar      1 <0>        -0.0958
     15 C13        -4.7734   -4.9769    1.8479 C.ar      1 <0>        -0.1409
     16 C14        -4.6219   -4.4463    3.2502 C.3       1 <0>         0.5070
     17 F1         -4.6433   -5.5117    4.1567 F         1 <0>        -0.1547
     18 F2         -3.4060   -3.7635    3.3616 F         1 <0>        -0.1851
     19 F3         -5.6759   -3.5713    3.5341 F         1 <0>        -0.1640
     20 N3         -4.9619   -8.2081    0.1029 N.am      1 <0>        -0.6837
     21 C15        -4.4196   -8.7143   -1.0223 C.2       1 <0>         0.7086
     22 O1         -3.8266   -7.9843   -1.7931 O.2       1 <0>        -0.5502
     23 N4         -4.5345  -10.0295   -1.2932 N.am      1 <0>        -0.6719
     24 C16        -3.8805  -10.5754   -2.4057 C.ar      1 <0>         0.1552
     25 C17        -2.6449  -10.0782   -2.7980 C.ar      1 <0>        -0.1020
     26 C18        -2.0009  -10.6166   -3.8944 C.ar      1 <0>        -0.0924
     27 C19        -2.5883  -11.6538   -4.6042 C.ar      1 <0>         0.0887
     28 C20        -3.8231  -12.1507   -4.2129 C.ar      1 <0>        -0.0905
     29 C21        -4.4651  -11.6176   -3.1127 C.ar      1 <0>        -0.1241
     30 O2         -1.9539  -12.1832   -5.6840 O.3       1 <0>        -0.2421
     31 C22        -0.8993  -13.0053   -5.4625 C.ar      1 <0>         0.3838
     32 C23        -0.1485  -13.4903   -6.5263 C.ar      1 <0>        -0.3084
     33 C24         0.9254  -14.3313   -6.2467 C.ar      1 <0>         0.4604
     34 N5          1.1921  -14.6382   -4.9788 N.ar      1 <0>        -0.5919
     35 C25         0.4556  -14.1572   -3.9982 C.ar      1 <0>         0.3765
     36 N6         -0.5651  -13.3548   -4.2232 N.ar      1 <0>        -0.6028
     37 N7          1.7048  -14.8418   -7.2729 N.pl3     1 <0>        -0.7101
     38 C26         1.4012  -14.4974   -8.6641 C.3       1 <0>         0.0876
     39 H1          1.1021    1.9080    0.6524 H         1 <0>         0.0710
     40 H2         -0.4339    2.0059   -0.2417 H         1 <0>         0.0692
     41 H3         -0.4448    1.8002    1.5263 H         1 <0>         0.0560
     42 H4          0.6026   -0.2324   -0.4957 H         1 <0>         0.0890
     43 H5          0.5917   -0.4381    1.2723 H         1 <0>         0.0460
     44 H6         -1.4883   -0.8519    2.4189 H         1 <0>         0.0601
     45 H7         -1.9714    0.7847    1.9111 H         1 <0>         0.1280
     46 H8         -3.9511   -0.6097    2.4716 H         1 <0>         0.1352
     47 H9         -3.9476   -0.1508    0.7518 H         1 <0>         0.1417
     48 H10        -2.8278   -3.3853   -0.4432 H         1 <0>         0.1337
     49 H11        -3.3058   -1.7365   -0.9134 H         1 <0>         0.1410
     50 H12        -0.8464   -1.9950   -1.0080 H         1 <0>         0.1252
     51 H13        -0.8272   -2.4856    0.7034 H         1 <0>         0.0590
     52 H14        -5.3865   -2.3888    1.9611 H         1 <0>         0.1450
     53 H15        -5.3489   -2.0978    0.2055 H         1 <0>         0.1515
     54 H16        -5.1065   -3.8935   -1.3309 H         1 <0>         0.1522
     55 H17        -5.1506   -6.3199   -1.7397 H         1 <0>         0.1607
     56 H18        -4.7176   -7.0252    2.4556 H         1 <0>         0.1562
     57 H19        -5.3697   -8.8006    0.7538 H         1 <0>         0.4195
     58 H20        -5.0700  -10.5982   -0.7181 H         1 <0>         0.4141
     59 H21        -2.1878   -9.2703   -2.2459 H         1 <0>         0.1387
     60 H22        -1.0398  -10.2299   -4.1996 H         1 <0>         0.1305
     61 H23        -4.2803  -12.9577   -4.7663 H         1 <0>         0.1381
     62 H24        -5.4240  -12.0080   -2.8052 H         1 <0>         0.1366
     63 H25        -0.3919  -13.2222   -7.5438 H         1 <0>         0.1492
     64 H26         0.6976  -14.4252   -2.9804 H         1 <0>         0.2009
     65 H27         2.4512  -15.4270   -7.0699 H         1 <0>         0.4139
     66 H28         0.3926  -14.8302   -8.9090 H         1 <0>         0.0630
     67 H29         1.4691  -13.4173   -8.7942 H         1 <0>         0.0624
     68 H30         2.1162  -14.9885   -9.3243 H         1 <0>         0.0869
     69 H31        -2.9890   -2.7030    1.8403 H         1 <0>         0.4158
@<TRIPOS>BOND
     1    1    2 1
     2    1   39 1
     3    1   40 1
     4    1   41 1
     5    2    3 1
     6    2   42 1
     7    2   43 1
     8    3    8 1
     9    3    4 1
    10    4    5 1
    11    4   44 1
    12    4   45 1
    13    5    6 1
    14    5   46 1
    15    5   47 1
    16    6    7 1
    17    6    9 1
    18    6   69 1
    19    7    8 1
    20    7   48 1
    21    7   49 1
    22    8   50 1
    23    8   51 1
    24    9   10 1
    25    9   52 1
    26    9   53 1
    27   10   15 ar
    28   10   11 ar
    29   11   12 ar
    30   11   54 1
    31   12   13 ar
    32   12   55 1
    33   13   14 ar
    34   13   20 1
    35   14   15 ar
    36   14   56 1
    37   15   16 1
    38   16   17 1
    39   16   18 1
    40   16   19 1
    41   20   21 am
    42   20   57 1
    43   21   22 2
    44   21   23 am
    45   23   24 1
    46   23   58 1
    47   24   29 ar
    48   24   25 ar
    49   25   26 ar
    50   25   59 1
    51   26   27 ar
    52   26   60 1
    53   27   28 ar
    54   27   30 1
    55   28   29 ar
    56   28   61 1
    57   29   62 1
    58   30   31 1
    59   31   36 ar
    60   31   32 ar
    61   32   33 ar
    62   32   63 1
    63   33   34 ar
    64   33   37 1
    65   34   35 ar
    66   35   36 ar
    67   35   64 1
    68   37   38 1
    69   37   65 1
    70   38   66 1
    71   38   67 1
    72   38   68 1
@<TRIPOS>MOLECULE
CHEMBL535
   57    59     0     0     0
SMALL
USER_CHARGES

@<TRIPOS>ATOM
      1 C1          0.1489    2.0884    0.1150 C.3       1 <0>        -0.1876
      2 C2          0.1348    0.5603    0.1888 C.3       1 <0>        -0.0191
      3 N1         -1.2520    0.0881    0.2979 N.4       1 <0>        -0.3822
      4 C3         -1.9779    0.4111   -0.9377 C.3       1 <0>        -0.0142
      5 C4         -3.4549    0.0484   -0.7712 C.3       1 <0>        -0.1895
      6 C5         -1.2593   -1.3663    0.5041 C.3       1 <0>        -0.0265
      7 C6         -0.6131   -1.6936    1.8518 C.3       1 <0>         0.0952
      8 N2         -0.6203   -3.1440    2.0575 N.am      1 <0>        -0.7289
      9 C7         -0.0988   -3.6675    3.1846 C.2       1 <0>         0.6111
     10 O1          0.3779   -2.9358    4.0309 O.2       1 <0>        -0.5184
     11 C8         -0.1061   -5.1270    3.3915 C.2       1 <0>        -0.2420
     12 C9          0.9071   -6.0320    3.0089 C.2       1 <0>        -0.0577
     13 C10         0.4868   -7.2892    3.3960 C.2       1 <0>        -0.0075
     14 N3         -0.7476   -7.1595    3.9982 N.pl3     1 <0>        -0.4910
     15 H1         -1.2731   -7.8879    4.3645 H         1 <0>         0.4270
     16 C11        -1.1044   -5.8642    4.0022 C.2       1 <0>         0.1158
     17 C12        -2.3825   -5.3072    4.5743 C.3       1 <0>        -0.0999
     18 C13         1.1957   -8.4957    3.2079 C.2       1 <0>         0.0729
     19 C14         0.5100   -9.6674    2.9570 C.2       1 <0>        -0.1889
     20 C15         1.0648  -11.0377    2.8871 C.ar      1 <0>        -0.0736
     21 C16         2.3472  -11.5557    3.0375 C.ar      1 <0>        -0.1000
     22 C17         2.5553  -12.9162    2.9116 C.ar      1 <0>         0.0861
     23 C18         1.4888  -13.7593    2.6366 C.ar      1 <0>        -0.1139
     24 C19         0.2139  -13.2531    2.4856 C.ar      1 <0>        -0.1021
     25 C20        -0.0144  -11.8871    2.6092 C.ar      1 <0>         0.1282
     26 N4         -1.1765  -11.1301    2.5069 N.am      1 <0>        -0.6466
     27 C21        -0.9294   -9.8245    2.7079 C.2       1 <0>         0.5595
     28 O2         -1.7538   -8.9280    2.6842 O.2       1 <0>        -0.5156
     29 F1          3.7984  -13.4252    3.0561 F         1 <0>        -0.1318
     30 C22         2.1990   -5.6919    2.3116 C.3       1 <0>        -0.0931
     31 H2          1.1793    2.4435    0.1331 H         1 <0>         0.1076
     32 H3         -0.3308    2.4121   -0.8087 H         1 <0>         0.0811
     33 H4         -0.3916    2.4984    0.9682 H         1 <0>         0.0809
     34 H5          0.5888    0.1488   -0.7126 H         1 <0>         0.1317
     35 H6          0.6996    0.2334    1.0619 H         1 <0>         0.1337
     36 H7         -1.8867    1.4775   -1.1444 H         1 <0>         0.1351
     37 H8         -1.5554   -0.1571   -1.7664 H         1 <0>         0.1307
     38 H9         -3.5537   -1.0316   -0.6617 H         1 <0>         0.0802
     39 H10        -3.8523    0.5414    0.1160 H         1 <0>         0.0808
     40 H11        -4.0109    0.3769   -1.6492 H         1 <0>         0.1074
     41 H12        -2.2871   -1.7292    0.4963 H         1 <0>         0.1397
     42 H13        -0.6973   -1.8494   -0.2952 H         1 <0>         0.1376
     43 H14         0.4147   -1.3306    1.8596 H         1 <0>         0.0893
     44 H15        -1.1751   -1.2105    2.6511 H         1 <0>         0.0890
     45 H16        -1.0005   -3.7277    1.3824 H         1 <0>         0.4099
     46 H17        -3.1529   -5.3000    3.8032 H         1 <0>         0.0840
     47 H18        -2.7087   -5.9289    5.4080 H         1 <0>         0.0782
     48 H19        -2.2103   -4.2898    4.9254 H         1 <0>         0.0840
     49 H20         2.2744   -8.5020    3.2604 H         1 <0>         0.1589
     50 H21         3.1765  -10.8977    3.2512 H         1 <0>         0.1436
     51 H22         1.6578  -14.8215    2.5394 H         1 <0>         0.1485
     52 H23        -0.6084  -13.9196    2.2712 H         1 <0>         0.1415
     53 H24        -2.0541  -11.4980    2.3189 H         1 <0>         0.4217
     54 H25         2.9686   -5.4822    3.0545 H         1 <0>         0.0785
     55 H26         2.5107   -6.5337    1.6932 H         1 <0>         0.0726
     56 H27         2.0522   -4.8138    1.6827 H         1 <0>         0.0634
     57 H28        -1.7009    0.5410    1.0799 H         1 <0>         0.4247
@<TRIPOS>BOND
     1    1    2 1
     2    1   31 1
     3    1   32 1
     4    1   33 1
     5    2    3 1
     6    2   34 1
     7    2   35 1
     8    3    4 1
     9    3    6 1
    10    3   57 1
    11    4    5 1
    12    4   36 1
    13    4   37 1
    14    5   38 1
    15    5   39 1
    16    5   40 1
    17    6    7 1
    18    6   41 1
    19    6   42 1
    20    7    8 1
    21    7   43 1
    22    7   44 1
    23    8    9 am
    24    8   45 1
    25    9   10 2
    26    9   11 1
    27   11   16 2
    28   11   12 1
    29   12   13 2
    30   12   30 1
    31   13   14 1
    32   13   18 1
    33   14   15 1
    34   14   16 1
    35   16   17 1
    36   17   46 1
    37   17   47 1
    38   17   48 1
    39   18   19 2
    40   18   49 1
    41   19   27 1
    42   19   20 1
    43   20   25 ar
    44   20   21 ar
    45   21   22 ar
    46   21   50 1
    47   22   23 ar
    48   22   29 1
    49   23   24 ar
    50   23   51 1
    51   24   25 ar
    52   24   52 1
    53   25   26 1
    54   26   27 am
    55   26   53 1
    56   27   28 2
    57   30   54 1
    58   30   55 1
    59   30   56 1
@<TRIPOS>MOLECULE
CHEMBL1088856
   66    70     0     0     0
SMALL
USER_CHARGES

@<TRIPOS>ATOM
      1 C1         -0.0686    1.4641   -0.0067 C.3       1 <0>        -0.1171
      2 C2         -0.0053   -0.0415    0.0035 C.ar      1 <0>        -0.0345
      3 C3         -0.0901   -0.7419   -1.1783 C.ar      1 <0>        -0.1042
      4 C4         -0.0320   -2.1370   -1.1690 C.ar      1 <0>        -0.0160
      5 C5          0.1121   -2.8224    0.0394 C.ar      1 <0>        -0.0871
      6 C6          0.1974   -2.1231    1.2213 C.ar      1 <0>        -0.0947
      7 C7          0.1451   -0.7265    1.2120 C.ar      1 <0>        -0.1230
      8 C8          0.2422    0.0249    2.4798 C.2       1 <0>         0.5665
      9 O1          1.1008    0.8743    2.6188 O.2       1 <0>        -0.5239
     10 N1         -0.6211   -0.2312    3.4826 N.am      1 <0>        -0.6111
     11 C9         -1.6109   -1.3144    3.3721 C.3       1 <0>         0.0601
     12 C10        -1.5169   -2.1855    4.6299 C.3       1 <0>         0.0469
     13 O2         -1.6140   -1.3525    5.7877 O.3       1 <0>        -0.3765
     14 C11        -0.5564   -0.3987    5.9129 C.3       1 <0>         0.0473
     15 C12        -0.5976    0.5603    4.7230 C.3       1 <0>         0.0754
     16 C13        -0.1236   -2.8896   -2.4398 C.ar      1 <0>        -0.0205
     17 C14        -1.1386   -2.6178   -3.3417 C.ar      1 <0>        -0.0803
     18 C15        -1.2310   -3.3210   -4.5369 C.ar      1 <0>        -0.0948
     19 C16        -0.3301   -4.2931   -4.8540 C.ar      1 <0>        -0.0763
     20 C17         0.7163   -4.6021   -3.9690 C.ar      1 <0>         0.0773
     21 C18         0.8295   -3.8912   -2.7483 C.ar      1 <0>         0.1010
     22 N2          1.8236   -4.1754   -1.9052 N.ar      1 <0>        -0.4103
     23 C19         2.6997   -5.1158   -2.2189 C.ar      1 <0>         0.1461
     24 C20         2.5884   -5.8160   -3.4347 C.ar      1 <0>         0.0940
     25 N3          1.6093   -5.5551   -4.2671 N.ar      1 <0>        -0.4161
     26 C21         3.8049   -5.4333   -1.2850 C.ar      1 <0>         0.0201
     27 C22         3.8581   -4.8219   -0.0325 C.ar      1 <0>        -0.1876
     28 C23         4.8908   -5.1201    0.8386 C.ar      1 <0>         0.1459
     29 C24         5.8759   -6.0293    0.4659 C.ar      1 <0>         0.0470
     30 C25         5.8244   -6.6402   -0.7831 C.ar      1 <0>         0.1497
     31 C26         4.7903   -6.3485   -1.6548 C.ar      1 <0>        -0.2109
     32 O3          6.7884   -7.5286   -1.1453 O.3       1 <0>        -0.2988
     33 C27         6.6732   -8.1180   -2.4420 C.3       1 <0>         0.0212
     34 O4          6.8905   -6.3209    1.3233 O.3       1 <0>        -0.3118
     35 C28         6.6847   -7.4096    2.2257 C.3       1 <0>         0.0356
     36 O5          4.9433   -4.5238    2.0598 O.3       1 <0>        -0.2985
     37 C29         3.8996   -3.6005    2.3763 C.3       1 <0>         0.0245
     38 H1          0.9429    1.8702   -0.0218 H         1 <0>         0.0823
     39 H2         -0.6079    1.7992   -0.8926 H         1 <0>         0.0706
     40 H3         -0.5864    1.8120    0.8872 H         1 <0>         0.0660
     41 H4         -0.2019   -0.2124   -2.1129 H         1 <0>         0.1327
     42 H5          0.1563   -3.9015    0.0461 H         1 <0>         0.1284
     43 H6          0.3084   -2.6532    2.1557 H         1 <0>         0.1286
     44 H7         -2.6119   -0.8903    3.2932 H         1 <0>         0.0808
     45 H8         -1.3971   -1.9185    2.4903 H         1 <0>         0.1050
     46 H9         -2.3316   -2.9097    4.6330 H         1 <0>         0.1096
     47 H10        -0.5618   -2.7108    4.6384 H         1 <0>         0.0562
     48 H11        -0.6802    0.1626    6.8390 H         1 <0>         0.1103
     49 H12         0.4021   -0.9175    5.9260 H         1 <0>         0.0571
     50 H13         0.2870    1.1970    4.7354 H         1 <0>         0.1044
     51 H14        -1.4948    1.1763    4.7824 H         1 <0>         0.0791
     52 H15        -1.8656   -1.8522   -3.1140 H         1 <0>         0.1414
     53 H16        -2.0307   -3.0933   -5.2260 H         1 <0>         0.1423
     54 H17        -0.4212   -4.8277   -5.7879 H         1 <0>         0.1436
     55 H18         3.3100   -6.5812   -3.6799 H         1 <0>         0.1758
     56 H19         3.0938   -4.1159    0.2569 H         1 <0>         0.1485
     57 H20         4.7485   -6.8259   -2.6226 H         1 <0>         0.1416
     58 H21         5.7318   -8.6630   -2.5111 H         1 <0>         0.0588
     59 H22         6.6965   -7.3353   -3.2003 H         1 <0>         0.0599
     60 H23         7.5036   -8.8053   -2.6037 H         1 <0>         0.1059
     61 H24         7.5682   -7.5347    2.8517 H         1 <0>         0.0947
     62 H25         5.8198   -7.2010    2.8555 H         1 <0>         0.0453
     63 H26         6.5089   -8.3235    1.6584 H         1 <0>         0.0459
     64 H27         3.9032   -2.7858    1.6522 H         1 <0>         0.0607
     65 H28         2.9382   -4.1131    2.3418 H         1 <0>         0.0562
     66 H29         4.0612   -3.1983    3.3764 H         1 <0>         0.1040
@<TRIPOS>BOND
     1    1    2 1
     2    1   38 1
     3    1   39 1
     4    1   40 1
     5    2    7 ar
     6    2    3 ar
     7    3    4 ar
     8    3   41 1
     9    4    5 ar
    10    4   16 1
    11    5    6 ar
    12    5   42 1
    13    6    7 ar
    14    6   43 1
    15    7    8 1
    16    8    9 2
    17    8   10 am
    18   10   15 1
    19   10   11 1
    20   11   12 1
    21   11   44 1
    22   11   45 1
    23   12   13 1
    24   12   46 1
    25   12   47 1
    26   13   14 1
    27   14   15 1
    28   14   48 1
    29   14   49 1
    30   15   50 1
    31   15   51 1
    32   16   21 ar
    33   16   17 ar
    34   17   18 ar
    35   17   52 1
    36   18   19 ar
    37   18   53 1
    38   19   20 ar
    39   19   54 1
    40   20   25 ar
    41   20   21 ar
    42   21   22 ar
    43   22   23 ar
    44   23   24 ar
    45   23   26 1
    46   24   25 ar
    47   24   55 1
    48   26   31 ar
    49   26   27 ar
    50   27   28 ar
    51   27   56 1
    52   28   29 ar
    53   28   36 1
    54   29   30 ar
    55   29   34 1
    56   30   31 ar
    57   30   32 1
    58   31   57 1
    59   32   33 1
    60   33   58 1
    61   33   59 1
    62   33   60 1
    63   34   35 1
    64   35   61 1
    65   35   62 1
    66   35   63 1
    67   36   37 1
    68   37   64 1
    69   37   65 1
    70   37   66 1
@<TRIPOS>MOLECULE
CHEMBL1088857
   64    68     0     0     0
SMALL
USER_CHARGES

@<TRIPOS>ATOM
      1 C1         -0.0173    1.4248    0.0099 C.3       1 <0>         0.0211
      2 O1          0.0021   -0.0041    0.0020 O.3       1 <0>        -0.2987
      3 C2         -1.2011   -0.6379    0.0101 C.ar      1 <0>         0.1498
      4 C3         -2.3714    0.1002    0.0195 C.ar      1 <0>        -0.2107
      5 C4         -3.6051   -0.5502    0.0278 C.ar      1 <0>         0.0207
      6 C5         -3.6567   -1.9440    0.0266 C.ar      1 <0>        -0.1878
      7 C6         -2.4844   -2.6788    0.0171 C.ar      1 <0>         0.1455
      8 C7         -1.2546   -2.0282    0.0031 C.ar      1 <0>         0.0473
      9 O2         -0.1033   -2.7522   -0.0122 O.3       1 <0>        -0.3118
     10 C8          0.4585   -3.1043    1.2537 C.3       1 <0>         0.0352
     11 O3         -2.5343   -4.0379    0.0164 O.3       1 <0>        -0.2974
     12 C9         -3.8305   -4.6395    0.0257 C.3       1 <0>         0.0218
     13 C10        -4.8592    0.2384    0.0384 C.ar      1 <0>         0.1456
     14 C11        -4.8047    1.6403   -0.0721 C.ar      1 <0>         0.0937
     15 N1         -5.9055    2.3529   -0.0640 N.ar      1 <0>        -0.4159
     16 C12        -7.0934    1.7444    0.0499 C.ar      1 <0>         0.0776
     17 C13        -8.2857    2.4878    0.0603 C.ar      1 <0>        -0.0763
     18 C14        -9.4862    1.8545    0.1764 C.ar      1 <0>        -0.0944
     19 C15        -9.5610    0.4704    0.2869 C.ar      1 <0>        -0.0800
     20 C16        -8.4125   -0.3005    0.2810 C.ar      1 <0>        -0.0190
     21 C17        -7.1513    0.3331    0.1609 C.ar      1 <0>         0.1016
     22 N2         -6.0237   -0.3800    0.1463 N.ar      1 <0>        -0.4100
     23 C18        -8.5006   -1.7744    0.3996 C.ar      1 <0>        -0.0107
     24 C19        -7.8169   -2.5913   -0.5011 C.ar      1 <0>        -0.0899
     25 C20        -7.9020   -3.9636   -0.3868 C.ar      1 <0>        -0.0905
     26 C21        -8.6636   -4.5314    0.6188 C.ar      1 <0>        -0.1115
     27 C22        -9.3453   -3.7264    1.5170 C.ar      1 <0>         0.1257
     28 C23        -9.2625   -2.3503    1.4153 C.ar      1 <0>        -0.1412
     29 F1        -10.0877   -4.2870    2.4967 F         1 <0>        -0.1291
     30 C24        -8.7524   -6.0311    0.7375 C.3       1 <0>         0.0953
     31 N3         -7.9304   -6.4823    1.8683 N.3       1 <0>        -0.5301
     32 C25        -6.5030   -6.2424    1.6109 C.3       1 <0>         0.0147
     33 C26        -5.6901   -6.6710    2.8354 C.3       1 <0>         0.0623
     34 O4         -5.9644   -8.0440    3.1267 O.3       1 <0>        -0.3833
     35 C27        -7.3454   -8.3134    3.3832 C.3       1 <0>         0.0633
     36 C28        -8.1751   -7.9014    2.1643 C.3       1 <0>         0.0184
     37 H1          1.0053    1.8021    0.0021 H         1 <0>         0.1060
     38 H2         -0.5445    1.7859   -0.8732 H         1 <0>         0.0600
     39 H3         -0.5275    1.7763    0.9067 H         1 <0>         0.0588
     40 H4         -2.3295    1.1794    0.0208 H         1 <0>         0.1415
     41 H5         -4.6112   -2.4493    0.0334 H         1 <0>         0.1484
     42 H6          1.3718   -3.6788    1.0987 H         1 <0>         0.0948
     43 H7          0.6898   -2.1980    1.8133 H         1 <0>         0.0458
     44 H8         -0.2577   -3.7049    1.8146 H         1 <0>         0.0460
     45 H9         -4.3696   -4.3272    0.9200 H         1 <0>         0.0584
     46 H10        -4.3830   -4.3257   -0.8599 H         1 <0>         0.0589
     47 H11        -3.7274   -5.7246    0.0240 H         1 <0>         0.1042
     48 H12        -3.8483    2.1334   -0.1641 H         1 <0>         0.1757
     49 H13        -8.2503    3.5640   -0.0236 H         1 <0>         0.1439
     50 H14       -10.3953    2.4374    0.1831 H         1 <0>         0.1426
     51 H15       -10.5253   -0.0073    0.3785 H         1 <0>         0.1414
     52 H16        -7.2221   -2.1501   -1.2872 H         1 <0>         0.1286
     53 H17        -7.3731   -4.5961   -1.0843 H         1 <0>         0.1311
     54 H18        -9.7900   -1.7228    2.1184 H         1 <0>         0.1372
     55 H19        -9.7898   -6.3216    0.9037 H         1 <0>         0.0898
     56 H20        -8.3892   -6.4904   -0.1818 H         1 <0>         0.0516
     57 H21        -6.1872   -6.8219    0.7434 H         1 <0>         0.0450
     58 H22        -6.3409   -5.1817    1.4195 H         1 <0>         0.0862
     59 H23        -4.6271   -6.5483    2.6277 H         1 <0>         0.0981
     60 H24        -5.9680   -6.0549    3.6906 H         1 <0>         0.0597
     61 H25        -7.4795   -9.3785    3.5717 H         1 <0>         0.1002
     62 H26        -7.6714   -7.7450    4.2543 H         1 <0>         0.0609
     63 H27        -9.2335   -8.0517    2.3768 H         1 <0>         0.0886
     64 H28        -7.8860   -8.5074    1.3056 H         1 <0>         0.0455
@<TRIPOS>BOND
     1    1    2 1
     2    1   37 1
     3    1   38 1
     4    1   39 1
     5    2    3 1
     6    3    8 ar
     7    3    4 ar
     8    4    5 ar
     9    4   40 1
    10    5    6 ar
    11    5   13 1
    12    6    7 ar
    13    6   41 1
    14    7    8 ar
    15    7   11 1
    16    8    9 1
    17    9   10 1
    18   10   42 1
    19   10   43 1
    20   10   44 1
    21   11   12 1
    22   12   45 1
    23   12   46 1
    24   12   47 1
    25   13   22 ar
    26   13   14 ar
    27   14   15 ar
    28   14   48 1
    29   15   16 ar
    30   16   21 ar
    31   16   17 ar
    32   17   18 ar
    33   17   49 1
    34   18   19 ar
    35   18   50 1
    36   19   20 ar
    37   19   51 1
    38   20   21 ar
    39   20   23 1
    40   21   22 ar
    41   23   28 ar
    42   23   24 ar
    43   24   25 ar
    44   24   52 1
    45   25   26 ar
    46   25   53 1
    47   26   27 ar
    48   26   30 1
    49   27   28 ar
    50   27   29 1
    51   28   54 1
    52   30   31 1
    53   30   55 1
    54   30   56 1
    55   31   36 1
    56   31   32 1
    57   32   33 1
    58   32   57 1
    59   32   58 1
    60   33   34 1
    61   33   59 1
    62   33   60 1
    63   34   35 1
    64   35   36 1
    65   35   61 1
    66   35   62 1
    67   36   63 1
    68   36   64 1
@<TRIPOS>MOLECULE
CHEMBL1092925
   71    76     0     0     0
SMALL
USER_CHARGES

@<TRIPOS>ATOM
      1 C1          0.2980    1.4466    0.1634 C.3       1 <0>        -0.0475
      2 N1          0.1557   -0.0129    0.0766 N.4       1 <0>        -0.3850
      3 C2         -1.2584   -0.3753    0.2351 C.3       1 <0>        -0.0225
      4 C3         -1.4237   -1.8849    0.0307 C.3       1 <0>         0.1007
      5 N2         -0.5114   -2.5826    0.9500 N.pl3     1 <0>        -0.6248
      6 C4          0.8997   -2.1675    0.9740 C.3       1 <0>         0.1011
      7 C5          0.9554   -0.6446    1.1338 C.3       1 <0>        -0.0248
      8 C6         -0.9690   -3.6031    1.7715 C.ar      1 <0>         0.4043
      9 C7         -2.2462   -4.1232    1.5750 C.ar      1 <0>        -0.2273
     10 C8         -2.6943   -5.1378    2.3958 C.ar      1 <0>        -0.0072
     11 C9         -1.8397   -5.6075    3.4017 C.ar      1 <0>        -0.1409
     12 C10        -0.5759   -5.0374    3.5370 C.ar      1 <0>         0.1980
     13 N3         -0.1834   -4.0735    2.7290 N.ar      1 <0>        -0.5350
     14 C11        -2.2741   -6.6948    4.3091 C.ar      1 <0>         0.1546
     15 C12        -3.5078   -7.3363    4.0915 C.ar      1 <0>         0.0870
     16 N4         -3.9067   -8.3008    4.8853 N.ar      1 <0>        -0.4100
     17 C13        -3.1360   -8.6812    5.9127 C.ar      1 <0>         0.0761
     18 C14        -3.5431   -9.7127    6.7757 C.ar      1 <0>        -0.0689
     19 C15        -2.7483  -10.0882    7.8163 C.ar      1 <0>        -0.0951
     20 C16        -1.5262   -9.4668    8.0481 C.ar      1 <0>        -0.0673
     21 C17        -1.0862   -8.4468    7.2236 C.ar      1 <0>        -0.0309
     22 C18        -1.8936   -8.0371    6.1343 C.ar      1 <0>         0.1078
     23 N5         -1.4977   -7.0605    5.3158 N.ar      1 <0>        -0.4221
     24 C19         0.2165   -7.7891    7.4778 C.ar      1 <0>         0.0235
     25 C20         1.1350   -7.6319    6.4404 C.ar      1 <0>        -0.1263
     26 C21         2.3490   -7.0171    6.6826 C.ar      1 <0>         0.1306
     27 C22         2.6541   -6.5579    7.9534 C.ar      1 <0>        -0.1530
     28 C23         1.7453   -6.7120    8.9874 C.ar      1 <0>         0.1558
     29 C24         0.5260   -7.3200    8.7540 C.ar      1 <0>        -0.1493
     30 F1          2.0488   -6.2625   10.2247 F         1 <0>        -0.1200
     31 C25         3.9794   -5.8887    8.2120 C.3       1 <0>         0.0997
     32 N6          3.8503   -4.4429    7.9865 N.3       1 <0>        -0.5515
     33 C26         3.5364   -4.1562    6.5849 C.3       1 <0>         0.0565
     34 C27         2.9829   -2.7333    6.4556 C.3       1 <0>        -0.5924
     35 S1          4.2661   -1.5622    6.9942 S.o2      1 <0>         2.4055
     36 O1          3.6649   -0.2895    7.1889 O.2       1 <0>        -0.9422
     37 O2          5.3798   -1.6768    6.1191 O.2       1 <0>        -0.9373
     38 C28         4.7269   -2.2402    8.6178 C.3       1 <0>        -0.5931
     39 C29         5.0424   -3.7305    8.4520 C.3       1 <0>         0.0633
     40 F2          3.2397   -6.8643    5.6784 F         1 <0>        -0.1272
     41 H1          1.3462    1.7176    0.0380 H         1 <0>         0.1264
     42 H2         -0.2952    1.9168   -0.6209 H         1 <0>         0.1256
     43 H3         -0.0516    1.7884    1.1377 H         1 <0>         0.1222
     44 H4         -1.5927   -0.1054    1.2368 H         1 <0>         0.1332
     45 H5         -1.8555    0.1590   -0.5038 H         1 <0>         0.1445
     46 H6         -2.4524   -2.1732    0.2467 H         1 <0>         0.1290
     47 H7         -1.1758   -2.1445   -0.9985 H         1 <0>         0.0956
     48 H8          1.4071   -2.6426    1.8136 H         1 <0>         0.1397
     49 H9          1.3822   -2.4556    0.0400 H         1 <0>         0.0896
     50 H10         1.9895   -0.3086    1.0571 H         1 <0>         0.1438
     51 H11         0.5540   -0.3665    2.1083 H         1 <0>         0.1333
     52 H12        -2.8786   -3.7366    0.7894 H         1 <0>         0.1408
     53 H13        -3.6801   -5.5594    2.2662 H         1 <0>         0.1475
     54 H14         0.0905   -5.3920    4.3094 H         1 <0>         0.1712
     55 H15        -4.1313   -7.0314    3.2641 H         1 <0>         0.1745
     56 H16        -4.4887  -10.2087    6.6137 H         1 <0>         0.1466
     57 H17        -3.0731  -10.8820    8.4727 H         1 <0>         0.1465
     58 H18        -0.9147   -9.7832    8.8802 H         1 <0>         0.1451
     59 H19         0.8983   -7.9903    5.4495 H         1 <0>         0.1425
     60 H20        -0.1838   -7.4357    9.5597 H         1 <0>         0.1477
     61 H21         4.2829   -6.0700    9.2431 H         1 <0>         0.1036
     62 H22         4.7304   -6.2963    7.5353 H         1 <0>         0.0648
     63 H23         4.4418   -4.2485    5.9849 H         1 <0>         0.0637
     64 H24         2.7924   -4.8681    6.2274 H         1 <0>         0.1000
     65 H25         2.7199   -2.5357    5.4164 H         1 <0>         0.1354
     66 H26         2.1005   -2.6250    7.0863 H         1 <0>         0.1412
     67 H27         5.6068   -1.7195    8.9956 H         1 <0>         0.1432
     68 H28         3.8978   -2.1168    9.3147 H         1 <0>         0.1449
     69 H29         5.3594   -4.1424    9.4101 H         1 <0>         0.1056
     70 H30         5.8443   -3.8520    7.7237 H         1 <0>         0.0643
     71 H31         0.4823   -0.3284   -0.8244 H         1 <0>         0.4252
@<TRIPOS>BOND
     1    1    2 1
     2    1   41 1
     3    1   42 1
     4    1   43 1
     5    2    7 1
     6    2    3 1
     7    2   71 1
     8    3    4 1
     9    3   44 1
    10    3   45 1
    11    4    5 1
    12    4   46 1
    13    4   47 1
    14    5    6 1
    15    5    8 1
    16    6    7 1
    17    6   48 1
    18    6   49 1
    19    7   50 1
    20    7   51 1
    21    8   13 ar
    22    8    9 ar
    23    9   10 ar
    24    9   52 1
    25   10   11 ar
    26   10   53 1
    27   11   12 ar
    28   11   14 1
    29   12   13 ar
    30   12   54 1
    31   14   23 ar
    32   14   15 ar
    33   15   16 ar
    34   15   55 1
    35   16   17 ar
    36   17   22 ar
    37   17   18 ar
    38   18   19 ar
    39   18   56 1
    40   19   20 ar
    41   19   57 1
    42   20   21 ar
    43   20   58 1
    44   21   22 ar
    45   21   24 1
    46   22   23 ar
    47   24   29 ar
    48   24   25 ar
    49   25   26 ar
    50   25   59 1
    51   26   27 ar
    52   26   40 1
    53   27   28 ar
    54   27   31 1
    55   28   29 ar
    56   28   30 1
    57   29   60 1
    58   31   32 1
    59   31   61 1
    60   31   62 1
    61   32   39 1
    62   32   33 1
    63   33   34 1
    64   33   63 1
    65   33   64 1
    66   34   35 1
    67   34   65 1
    68   34   66 1
    69   35   36 2
    70   35   37 2
    71   35   38 1
    72   38   39 1
    73   38   67 1
    74   38   68 1
    75   39   69 1
    76   39   70 1
@<TRIPOS>MOLECULE
CHEMBL1092925__1
   70    75     0     0     0
SMALL
USER_CHARGES

@<TRIPOS>ATOM
      1 C1          0.2937    1.4473    0.1734 C.3       1 <0>         0.0239
      2 N1          0.1603   -0.0129    0.0849 N.3       1 <0>        -0.5430
      3 C2         -1.2500   -0.4179    0.1551 C.3       1 <0>         0.0384
      4 C3         -1.3608   -1.9211   -0.1212 C.3       1 <0>         0.1248
      5 N2         -0.4627   -2.6330    0.8007 N.pl3     1 <0>        -0.6022
      6 C4          0.9378   -2.1922    0.8869 C.3       1 <0>         0.1254
      7 C5          0.9581   -0.6784    1.1235 C.3       1 <0>         0.0372
      8 C6         -0.9245   -3.6927    1.5686 C.ar      1 <0>         0.4247
      9 C7         -2.1826   -4.2319    1.3100 C.ar      1 <0>        -0.2416
     10 C8         -2.6349   -5.2855    2.0777 C.ar      1 <0>        -0.0038
     11 C9         -1.8038   -5.7741    3.0943 C.ar      1 <0>        -0.1797
     12 C10        -0.5582   -5.1831    3.2930 C.ar      1 <0>         0.2062
     13 N3         -0.1607   -4.1818    2.5344 N.ar      1 <0>        -0.5448
     14 C11        -2.2437   -6.9033    3.9462 C.ar      1 <0>         0.1770
     15 C12        -3.4550   -7.5621    3.6637 C.ar      1 <0>         0.0855
     16 N4         -3.8583   -8.5636    4.4078 N.ar      1 <0>        -0.4141
     17 C13        -3.1138   -8.9656    5.4462 C.ar      1 <0>         0.0663
     18 C14        -3.5262  -10.0367    6.2567 C.ar      1 <0>        -0.0668
     19 C15        -2.7581  -10.4339    7.3093 C.ar      1 <0>        -0.1040
     20 C16        -1.5585   -9.7959    7.6049 C.ar      1 <0>        -0.0711
     21 C17        -1.1143   -8.7370    6.8335 C.ar      1 <0>        -0.0319
     22 C18        -1.8940   -8.3042    5.7331 C.ar      1 <0>         0.1112
     23 N5         -1.4931   -7.2898    4.9646 N.ar      1 <0>        -0.4322
     24 C19         0.1644   -8.0620    7.1555 C.ar      1 <0>         0.0246
     25 C20         1.1130   -7.8471    6.1563 C.ar      1 <0>        -0.1242
     26 C21         2.3043   -7.2163    6.4617 C.ar      1 <0>         0.1320
     27 C22         2.5569   -6.7983    7.7580 C.ar      1 <0>        -0.1540
     28 C23         1.6180   -7.0098    8.7543 C.ar      1 <0>         0.1534
     29 C24         0.4210   -7.6341    8.4577 C.ar      1 <0>        -0.1508
     30 F1          1.8703   -6.6002   10.0167 F         1 <0>        -0.1224
     31 C25         3.8577   -6.1115    8.0856 C.3       1 <0>         0.1010
     32 N6          3.7039   -4.6613    7.9087 N.3       1 <0>        -0.5517
     33 C26         3.4304   -4.3294    6.5085 C.3       1 <0>         0.0568
     34 C27         2.8498   -2.9146    6.4125 C.3       1 <0>        -0.5923
     35 S1          4.0882   -1.7377    7.0366 S.o2      1 <0>         2.4062
     36 O1          3.4526   -0.4860    7.2571 O.2       1 <0>        -0.9404
     37 O2          5.2325   -1.7962    6.1962 O.2       1 <0>        -0.9365
     38 C28         4.5099   -2.4656    8.6492 C.3       1 <0>        -0.5958
     39 C29         4.8638   -3.9418    8.4399 C.3       1 <0>         0.0647
     40 F2          3.2242   -7.0075    5.4945 F         1 <0>        -0.1259
     41 H1          1.3396    1.7252    0.0424 H         1 <0>         0.0722
     42 H2         -0.3069    1.9150   -0.6068 H         1 <0>         0.0708
     43 H3         -0.0524    1.7853    1.1501 H         1 <0>         0.0270
     44 H4         -1.6417   -0.2009    1.1489 H         1 <0>         0.0394
     45 H5         -1.8240    0.1322   -0.5906 H         1 <0>         0.0901
     46 H6         -2.3875   -2.2487    0.0419 H         1 <0>         0.0898
     47 H7         -1.0669   -2.1268   -1.1505 H         1 <0>         0.0795
     48 H8          1.4308   -2.6991    1.7165 H         1 <0>         0.1020
     49 H9          1.4527   -2.4240   -0.0455 H         1 <0>         0.0726
     50 H10         1.9856   -0.3171    1.0801 H         1 <0>         0.0892
     51 H11         0.5356   -0.4578    2.1038 H         1 <0>         0.0398
     52 H12        -2.7970   -3.8298    0.5181 H         1 <0>         0.1395
     53 H13        -3.6063   -5.7226    1.8995 H         1 <0>         0.1398
     54 H14         0.0900   -5.5519    4.0741 H         1 <0>         0.1636
     55 H15        -4.0574   -7.2398    2.8272 H         1 <0>         0.1749
     56 H16        -4.4546  -10.5462    6.0448 H         1 <0>         0.1430
     57 H17        -3.0867  -11.2581    7.9250 H         1 <0>         0.1422
     58 H18        -0.9680  -10.1302    8.4452 H         1 <0>         0.1417
     59 H19         0.9173   -8.1733    5.1455 H         1 <0>         0.1437
     60 H20        -0.3124   -7.7946    9.2342 H         1 <0>         0.1460
     61 H21         4.1308   -6.3245    9.1191 H         1 <0>         0.1013
     62 H22         4.6396   -6.4778    7.4203 H         1 <0>         0.0635
     63 H23         4.3569   -4.3803    5.9366 H         1 <0>         0.0644
     64 H24         2.7146   -5.0430    6.1004 H         1 <0>         0.1009
     65 H25         2.6171   -2.6842    5.3729 H         1 <0>         0.1414
     66 H26         1.9449   -2.8484    7.0165 H         1 <0>         0.1412
     67 H27         5.3650   -1.9410    9.0753 H         1 <0>         0.1408
     68 H28         3.6557   -2.3857    9.3215 H         1 <0>         0.1435
     69 H29         5.1580   -4.3822    9.3925 H         1 <0>         0.1027
     70 H30         5.6919   -4.0193    7.7353 H         1 <0>         0.0633
@<TRIPOS>BOND
     1    1    2 1
     2    1   41 1
     3    1   42 1
     4    1   43 1
     5    2    7 1
     6    2    3 1
     7    3    4 1
     8    3   44 1
     9    3   45 1
    10    4    5 1
    11    4   46 1
    12    4   47 1
    13    5    6 1
    14    5    8 1
    15    6    7 1
    16    6   48 1
    17    6   49 1
    18    7   50 1
    19    7   51 1
    20    8   13 ar
    21    8    9 ar
    22    9   10 ar
    23    9   52 1
    24   10   11 ar
    25   10   53 1
    26   11   12 ar
    27   11   14 1
    28   12   13 ar
    29   12   54 1
    30   14   23 ar
    31   14   15 ar
    32   15   16 ar
    33   15   55 1
    34   16   17 ar
    35   17   22 ar
    36   17   18 ar
    37   18   19 ar
    38   18   56 1
    39   19   20 ar
    40   19   57 1
    41   20   21 ar
    42   20   58 1
    43   21   22 ar
    44   21   24 1
    45   22   23 ar
    46   24   29 ar
    47   24   25 ar
    48   25   26 ar
    49   25   59 1
    50   26   27 ar
    51   26   40 1
    52   27   28 ar
    53   27   31 1
    54   28   29 ar
    55   28   30 1
    56   29   60 1
    57   31   32 1
    58   31   61 1
    59   31   62 1
    60   32   39 1
    61   32   33 1
    62   33   34 1
    63   33   63 1
    64   33   64 1
    65   34   35 1
    66   34   65 1
    67   34   66 1
    68   35   36 2
    69   35   37 2
    70   35   38 1
    71   38   39 1
    72   38   67 1
    73   38   68 1
    74   39   69 1
    75   39   70 1
@<TRIPOS>MOLECULE
CHEMBL1078229
   53    56     0     0     0
SMALL
USER_CHARGES

@<TRIPOS>ATOM
      1 C1         -0.0308    1.1110   -0.7272 C.ar      1 <0>        -0.0508
      2 C2          1.1282    1.8616   -0.7784 C.ar      1 <0>        -0.1698
      3 C3          2.2525    1.4555   -0.0703 C.ar      1 <0>         0.2120
      4 C4          2.2106    0.2945    0.6890 C.ar      1 <0>        -0.2293
      5 C5          1.0452   -0.4570    0.7382 C.ar      1 <0>         0.2398
      6 C6         -0.0759   -0.0451    0.0274 C.ar      1 <0>        -0.2147
      7 N1          0.9990   -1.6262    1.5007 N.pl3     1 <0>        -0.6326
      8 C7          2.1274   -2.0141    2.3618 C.3       1 <0>         0.0869
      9 C8          1.5836   -2.3238    3.7613 C.3       1 <0>         0.0457
     10 O1          0.5144   -3.2665    3.6528 O.3       1 <0>        -0.3792
     11 C9         -0.6113   -2.7920    2.9101 C.3       1 <0>         0.0449
     12 C10        -0.1821   -2.5035    1.4714 C.3       1 <0>         0.0866
     13 N2          3.4249    2.2153   -0.1229 N.pl3     1 <0>        -0.6371
     14 C11         3.3524    3.5931   -0.2482 C.ar      1 <0>         0.5660
     15 N3          2.1665    4.1838   -0.2057 N.ar      1 <0>        -0.5479
     16 C12         2.0553    5.4970   -0.3215 C.ar      1 <0>         0.1933
     17 C13         3.1976    6.2611   -0.4896 C.ar      1 <0>        -0.2679
     18 C14         4.4331    5.6105   -0.5305 C.ar      1 <0>         0.2521
     19 N4          4.4693    4.2861   -0.4019 N.ar      1 <0>        -0.5573
     20 C15         5.6859    6.3842   -0.7087 C.ar      1 <0>        -0.0305
     21 C16         5.6361    7.7727   -0.8310 C.ar      1 <0>        -0.0956
     22 C17         6.7990    8.4920   -0.9960 C.ar      1 <0>        -0.0594
     23 C18         8.0282    7.8307   -1.0408 C.ar      1 <0>        -0.1198
     24 C19         8.0770    6.4405   -0.9183 C.ar      1 <0>        -0.0917
     25 C20         6.9135    5.7233   -0.7480 C.ar      1 <0>        -0.0786
     26 C21         9.2769    8.6019   -1.2184 C.2       1 <0>         0.5673
     27 O2          9.2339    9.8120   -1.3254 O.2       1 <0>        -0.5218
     28 N5         10.4630    7.9633   -1.2616 N.am      1 <0>        -0.7281
     29 C22        11.7004    8.7275   -1.4375 C.3       1 <0>         0.2201
     30 C23        12.8483    7.8061   -1.4516 C.1       1 <0>         0.1887
     31 N6         13.7342    7.0951   -1.4624 N.1       1 <0>        -0.3973
     32 H1         -0.9048    1.4313   -1.2750 H         1 <0>         0.1246
     33 H2          1.1603    2.7648   -1.3697 H         1 <0>         0.1315
     34 H3          3.0833   -0.0235    1.2400 H         1 <0>         0.1232
     35 H4         -0.9835   -0.6293    0.0655 H         1 <0>         0.1221
     36 H5          2.6139   -2.8997    1.9528 H         1 <0>         0.0709
     37 H6          2.8439   -1.1947    2.4194 H         1 <0>         0.0910
     38 H7          2.3791   -2.7447    4.3761 H         1 <0>         0.1050
     39 H8          1.2148   -1.4062    4.2198 H         1 <0>         0.0557
     40 H9         -1.3948   -3.5498    2.9126 H         1 <0>         0.1059
     41 H10        -0.9880   -1.8762    3.3655 H         1 <0>         0.0558
     42 H11        -0.9944   -2.0079    0.9397 H         1 <0>         0.0947
     43 H12         0.0678   -3.4391    0.9712 H         1 <0>         0.0710
     44 H13         4.2891    1.7778   -0.0718 H         1 <0>         0.4227
     45 H14         1.0840    5.9678   -0.2858 H         1 <0>         0.1748
     46 H15         3.1348    7.3349   -0.5870 H         1 <0>         0.1508
     47 H16         4.6854    8.2839   -0.7966 H         1 <0>         0.1402
     48 H17         6.7603    9.5671   -1.0910 H         1 <0>         0.1460
     49 H18         9.0271    5.9282   -0.9531 H         1 <0>         0.1309
     50 H19         6.9514    4.6485   -0.6491 H         1 <0>         0.1433
     51 H20        10.4973    6.9977   -1.1762 H         1 <0>         0.4075
     52 H21        11.6601    9.2721   -2.3808 H         1 <0>         0.1193
     53 H22        11.8114    9.4337   -0.6147 H         1 <0>         0.1193
@<TRIPOS>BOND
     1    1    6 ar
     2    1    2 ar
     3    1   32 1
     4    2    3 ar
     5    2   33 1
     6    3    4 ar
     7    3   13 1
     8    4    5 ar
     9    4   34 1
    10    5    6 ar
    11    5    7 1
    12    6   35 1
    13    7   12 1
    14    7    8 1
    15    8    9 1
    16    8   36 1
    17    8   37 1
    18    9   10 1
    19    9   38 1
    20    9   39 1
    21   10   11 1
    22   11   12 1
    23   11   40 1
    24   11   41 1
    25   12   42 1
    26   12   43 1
    27   13   14 1
    28   13   44 1
    29   14   19 ar
    30   14   15 ar
    31   15   16 ar
    32   16   17 ar
    33   16   45 1
    34   17   18 ar
    35   17   46 1
    36   18   19 ar
    37   18   20 1
    38   20   25 ar
    39   20   21 ar
    40   21   22 ar
    41   21   47 1
    42   22   23 ar
    43   22   48 1
    44   23   24 ar
    45   23   26 1
    46   24   25 ar
    47   24   49 1
    48   25   50 1
    49   26   27 2
    50   26   28 am
    51   28   29 1
    52   28   51 1
    53   29   30 1
    54   29   52 1
    55   29   53 1
    56   30   31 3
@<TRIPOS>MOLECULE
CHEMBL576475
   38    41     0     0     0
SMALL
USER_CHARGES

@<TRIPOS>ATOM
      1 C1         -0.0690    1.3740    0.0016 C.ar      1 <0>        -0.0756
      2 C2          1.1375    2.0576   -0.0018 C.ar      1 <0>        -0.1634
      3 C3          2.3182    1.3398   -0.0120 C.ar      1 <0>         0.1004
      4 N1          2.3059    0.0210   -0.0190 N.ar      1 <0>        -0.4677
      5 C4          1.1779   -0.6619   -0.0161 C.ar      1 <0>         0.1047
      6 C5         -0.0420   -0.0120   -0.0055 C.ar      1 <0>        -0.1511
      7 C6          1.2193   -2.1683   -0.0249 C.3       1 <0>         0.1818
      8 N2          1.3447   -2.6453   -1.4044 N.pl3     1 <0>        -0.7074
      9 C7          1.4027   -4.0059   -1.6649 C.ar      1 <0>         0.4425
     10 C8          1.3368   -4.9267   -0.6243 C.ar      1 <0>        -0.2900
     11 C9          1.3990   -6.2860   -0.9405 C.ar      1 <0>         0.3042
     12 N3          1.5187   -6.6467   -2.2219 N.ar      1 <0>        -0.5809
     13 C10         1.5775   -5.7407   -3.1748 C.ar      1 <0>         0.3468
     14 N4          1.5168   -4.4498   -2.9156 N.ar      1 <0>        -0.5922
     15 C11         1.3342   -7.3070    0.1232 C.2       1 <0>        -0.2532
     16 C12         1.2854   -8.7019   -0.0583 C.2       1 <0>         0.4262
     17 N5          1.2355   -9.2774    1.1229 N.2       1 <0>        -0.3725
     18 N6          1.2493   -8.2934    2.1176 N.pl3     1 <0>        -0.2936
     19 C13         1.3156   -7.0706    1.5058 C.2       1 <0>         0.3167
     20 N7          1.3466   -5.9473    2.2281 N.2       1 <0>        -0.4742
     21 C14         1.3173   -5.9896    3.5414 C.2       1 <0>         0.1940
     22 C15         1.2527   -7.2212    4.2043 C.2       1 <0>        -0.2379
     23 C16         1.2137   -8.3674    3.4784 C.2       1 <0>         0.1831
     24 N8          1.2888   -9.3630   -1.2856 N.pl3     1 <0>        -0.8151
     25 H1         -1.0073    1.9086    0.0140 H         1 <0>         0.1384
     26 H2          1.1541    3.1375    0.0032 H         1 <0>         0.1386
     27 H3          3.2620    1.8648   -0.0147 H         1 <0>         0.1598
     28 H4         -0.9625   -0.5769   -0.0028 H         1 <0>         0.1378
     29 H5          2.0743   -2.5117    0.5574 H         1 <0>         0.0864
     30 H6          0.3009   -2.5595    0.4127 H         1 <0>         0.0831
     31 H7          1.3873   -2.0093   -2.1356 H         1 <0>         0.4074
     32 H8          1.2404   -4.5995    0.4004 H         1 <0>         0.1554
     33 H9          1.6746   -6.0648   -4.2004 H         1 <0>         0.1946
     34 H10         1.3435   -5.0721    4.1106 H         1 <0>         0.1838
     35 H11         1.2285   -7.2586    5.2834 H         1 <0>         0.1714
     36 H12         1.1655   -9.3264    3.9728 H         1 <0>         0.1837
     37 H13         1.4013   -8.8598   -2.1072 H         1 <0>         0.4289
     38 H14         1.1786  -10.3262   -1.3179 H         1 <0>         0.4048
@<TRIPOS>BOND
     1    1    6 ar
     2    1    2 ar
     3    1   25 1
     4    2    3 ar
     5    2   26 1
     6    3    4 ar
     7    3   27 1
     8    4    5 ar
     9    5    6 ar
    10    5    7 1
    11    6   28 1
    12    7    8 1
    13    7   29 1
    14    7   30 1
    15    8    9 1
    16    8   31 1
    17    9   14 ar
    18    9   10 ar
    19   10   11 ar
    20   10   32 1
    21   11   12 ar
    22   11   15 1
    23   12   13 ar
    24   13   14 ar
    25   13   33 1
    26   15   19 2
    27   15   16 1
    28   16   17 2
    29   16   24 1
    30   17   18 1
    31   18   23 1
    32   18   19 1
    33   19   20 1
    34   20   21 2
    35   21   22 1
    36   21   34 1
    37   22   23 2
    38   22   35 1
    39   23   36 1
    40   24   37 1
    41   24   38 1
@<TRIPOS>MOLECULE
CHEMBL569739
   44    47     0     0     0
SMALL
USER_CHARGES

@<TRIPOS>ATOM
      1 C1         -0.0128    1.5549   -0.0091 C.3       1 <0>        -0.1711
      2 C2          0.0089    0.0251   -0.0071 C.3       1 <0>         0.1185
      3 N1          0.6928   -0.4552   -1.2104 N.pl3     1 <0>        -0.5922
      4 C3          2.1404   -0.6788   -1.1902 C.3       1 <0>         0.1667
      5 C4          2.4237   -2.0977   -0.7687 C.ar      1 <0>        -0.0623
      6 C5          2.5890   -2.4210    0.5694 C.ar      1 <0>        -0.1636
      7 C6          2.8477   -3.7330    0.9183 C.ar      1 <0>         0.0933
      8 N2          2.9380   -4.6710   -0.0042 N.ar      1 <0>        -0.4846
      9 C7          2.7865   -4.4001   -1.2858 C.ar      1 <0>         0.0928
     10 C8          2.5196   -3.1118   -1.7093 C.ar      1 <0>        -0.1438
     11 C9         -0.0302   -0.6981   -2.3683 C.ar      1 <0>         0.4418
     12 C10        -1.3843   -0.3862   -2.4328 C.ar      1 <0>        -0.2869
     13 C11        -2.0667   -0.6502   -3.6228 C.ar      1 <0>         0.3032
     14 N3         -1.3966   -1.1887   -4.6464 N.ar      1 <0>        -0.5798
     15 C12        -0.1147   -1.4678   -4.5409 C.ar      1 <0>         0.3441
     16 N4          0.5635   -1.2282   -3.4364 N.ar      1 <0>        -0.5889
     17 C13        -3.5042   -0.3402   -3.7477 C.2       1 <0>        -0.2538
     18 C14        -4.2878   -0.4602   -4.9106 C.2       1 <0>         0.4262
     19 N5         -5.5181   -0.0927   -4.6276 N.2       1 <0>        -0.3722
     20 N6         -5.5912    0.2797   -3.2808 N.pl3     1 <0>        -0.2934
     21 C15        -4.3486    0.1239   -2.7281 C.2       1 <0>         0.3166
     22 N7         -4.1345    0.4066   -1.4402 N.2       1 <0>        -0.4745
     23 C16        -5.1113    0.8375   -0.6735 C.2       1 <0>         0.1940
     24 C17        -6.3973    1.0067   -1.2010 C.2       1 <0>        -0.2378
     25 C18        -6.6223    0.7286   -2.5102 C.2       1 <0>         0.1833
     26 N8         -3.8349   -0.8953   -6.1552 N.pl3     1 <0>        -0.8152
     27 H1          1.0096    1.9328   -0.0212 H         1 <0>         0.0575
     28 H2         -0.5417    1.9096   -0.8936 H         1 <0>         0.0600
     29 H3         -0.5215    1.9123    0.8862 H         1 <0>         0.0691
     30 H4          0.5379   -0.3296    0.8775 H         1 <0>         0.0797
     31 H5         -1.0134   -0.3527    0.0051 H         1 <0>         0.0826
     32 H6          2.5485   -0.5074   -2.1863 H         1 <0>         0.0985
     33 H7          2.6046    0.0095   -0.4839 H         1 <0>         0.0861
     34 H8          2.5169   -1.6571    1.3295 H         1 <0>         0.1310
     35 H9          2.9777   -3.9931    1.9584 H         1 <0>         0.1539
     36 H10         2.8678   -5.1947   -2.0127 H         1 <0>         0.1541
     37 H11         2.3916   -2.8970   -2.7599 H         1 <0>         0.1441
     38 H12        -1.8943    0.0480   -1.5857 H         1 <0>         0.1569
     39 H13         0.3979   -1.9027   -5.3862 H         1 <0>         0.1933
     40 H14        -4.9216    1.0612    0.3659 H         1 <0>         0.1837
     41 H15        -7.2015    1.3607   -0.5730 H         1 <0>         0.1716
     42 H16        -7.6082    0.8517   -2.9337 H         1 <0>         0.1839
     43 H17        -2.9251   -1.2165   -6.2551 H         1 <0>         0.4288
     44 H18        -4.4296   -0.8769   -6.9213 H         1 <0>         0.4049
@<TRIPOS>BOND
     1    1    2 1
     2    1   27 1
     3    1   28 1
     4    1   29 1
     5    2    3 1
     6    2   30 1
     7    2   31 1
     8    3    4 1
     9    3   11 1
    10    4    5 1
    11    4   32 1
    12    4   33 1
    13    5   10 ar
    14    5    6 ar
    15    6    7 ar
    16    6   34 1
    17    7    8 ar
    18    7   35 1
    19    8    9 ar
    20    9   10 ar
    21    9   36 1
    22   10   37 1
    23   11   16 ar
    24   11   12 ar
    25   12   13 ar
    26   12   38 1
    27   13   14 ar
    28   13   17 1
    29   14   15 ar
    30   15   16 ar
    31   15   39 1
    32   17   21 2
    33   17   18 1
    34   18   19 2
    35   18   26 1
    36   19   20 1
    37   20   25 1
    38   20   21 1
    39   21   22 1
    40   22   23 2
    41   23   24 1
    42   23   40 1
    43   24   25 2
    44   24   41 1
    45   25   42 1
    46   26   43 1
    47   26   44 1
@<TRIPOS>MOLECULE
CHEMBL221959
   43    45     0     0     0
SMALL
USER_CHARGES

@<TRIPOS>ATOM
      1 C1         -0.1632    1.4289   -0.0427 C.3       1 <0>        -0.1412
      2 C2         -0.0864   -0.0984    0.0043 C.3       1 <0>        -0.0993
      3 H1          0.4045   -0.4653   -0.8971 H         1 <0>         0.0854
      4 C3         -1.5005   -0.6778    0.0865 C.3       1 <0>        -0.1618
      5 C4         -1.4214   -2.2076    0.0985 C.3       1 <0>         0.0979
      6 N1         -0.5332   -2.6266    1.1913 N.am      1 <0>        -0.6084
      7 C5          0.8204   -2.0592    1.2586 C.3       1 <0>         0.1008
      8 C6          0.7158   -0.5310    1.2337 C.3       1 <0>         0.1392
      9 H2          1.7154   -0.0989    1.1864 H         1 <0>         0.1227
     10 N2          0.0389   -0.0672    2.4474 N.pl3     1 <0>        -0.5724
     11 C7         -1.3008   -0.5622    2.7736 C.3       1 <0>         0.0568
     12 C8          0.6646    0.8382    3.2852 C.ar      1 <0>         0.4913
     13 C9         -0.0139    1.3910    4.3823 C.ar      1 <0>        -0.2606
     14 C10        -1.3557    1.2550    4.9458 C.2       1 <0>        -0.1714
     15 C11        -1.4077    2.0560    6.0226 C.2       1 <0>         0.0373
     16 N3         -0.2038    2.6908    6.1878 N.pl3     1 <0>        -0.5701
     17 H3          0.0007    3.3193    6.8977 H         1 <0>         0.4217
     18 C12         0.6666    2.3073    5.2049 C.ar      1 <0>         0.3412
     19 N4          1.9288    2.6138    4.9083 N.ar      1 <0>        -0.5745
     20 C13         2.5254    2.0715    3.8692 C.ar      1 <0>         0.3621
     21 N5          1.9260    1.2026    3.0748 N.ar      1 <0>        -0.6016
     22 C14        -0.9523   -3.5144    2.1147 C.2       1 <0>         0.5178
     23 O1         -0.2095   -3.8523    3.0120 O.2       1 <0>        -0.5153
     24 C15        -2.3438   -4.0872    2.0324 C.3       1 <0>        -0.0460
     25 C16        -2.5552   -5.0247    3.1474 C.1       1 <0>         0.2103
     26 N6         -2.7185   -5.7482    4.0078 N.1       1 <0>        -0.4023
     27 H4          0.8439    1.8417   -0.1017 H         1 <0>         0.0576
     28 H5         -0.7342    1.7372   -0.9185 H         1 <0>         0.0554
     29 H6         -0.6541    1.7959    0.8587 H         1 <0>         0.0527
     30 H7         -1.9831   -0.3313    1.0004 H         1 <0>         0.0936
     31 H8         -2.0787   -0.3501   -0.7775 H         1 <0>         0.0813
     32 H9         -2.4164   -2.6237    0.2564 H         1 <0>         0.0917
     33 H10        -1.0222   -2.5603   -0.8525 H         1 <0>         0.0812
     34 H11         1.3045   -2.3773    2.1818 H         1 <0>         0.1011
     35 H12         1.4023   -2.3998    0.4022 H         1 <0>         0.0864
     36 H13        -1.4613   -1.5240    2.2863 H         1 <0>         0.0974
     37 H14        -1.3908   -0.6824    3.8532 H         1 <0>         0.0714
     38 H15        -2.0469    0.1513    2.4239 H         1 <0>         0.0596
     39 H16        -2.1522    0.6306    4.5687 H         1 <0>         0.1530
     40 H17        -2.2689    2.1817    6.6620 H         1 <0>         0.1790
     41 H18         3.5491    2.3441    3.6594 H         1 <0>         0.1974
     42 H19        -3.0733   -3.2796    2.0934 H         1 <0>         0.1393
     43 H20        -2.4641   -4.6148    1.0862 H         1 <0>         0.1422
@<TRIPOS>BOND
     1    1    2 1
     2    1   27 1
     3    1   28 1
     4    1   29 1
     5    2    3 1
     6    2    8 1
     7    2    4 1
     8    4    5 1
     9    4   30 1
    10    4   31 1
    11    5    6 1
    12    5   32 1
    13    5   33 1
    14    6    7 1
    15    6   22 am
    16    7    8 1
    17    7   34 1
    18    7   35 1
    19    8    9 1
    20    8   10 1
    21   10   11 1
    22   10   12 1
    23   11   36 1
    24   11   37 1
    25   11   38 1
    26   12   21 ar
    27   12   13 ar
    28   13   18 ar
    29   13   14 1
    30   14   15 2
    31   14   39 1
    32   15   16 1
    33   15   40 1
    34   16   17 1
    35   16   18 1
    36   18   19 ar
    37   19   20 ar
    38   20   21 ar
    39   20   41 1
    40   22   23 2
    41   22   24 1
    42   24   25 1
    43   24   42 1
    44   24   43 1
    45   25   26 3
@<TRIPOS>MOLECULE
CHEMBL1092063
   77    82     0     0     0
SMALL
USER_CHARGES

@<TRIPOS>ATOM
      1 C1         -0.6654    1.3978    0.1047 C.3       1 <0>        -0.1384
      2 C2         -0.3151   -0.0671    0.0552 C.ar      1 <0>        -0.0247
      3 C3         -0.4210   -0.7610   -1.1296 C.ar      1 <0>        -0.1006
      4 C4         -0.0967   -2.1172   -1.1756 C.ar      1 <0>        -0.0056
      5 C5          0.3346   -2.7717   -0.0210 C.ar      1 <0>        -0.0867
      6 C6          0.4406   -2.0795    1.1643 C.ar      1 <0>        -0.0921
      7 C7          0.1225   -0.7200    1.2096 C.ar      1 <0>        -0.1382
      8 C8          0.2427    0.0255    2.4802 C.2       1 <0>         0.5778
      9 O1         -0.6795    0.7148    2.8700 O.2       1 <0>        -0.4965
     10 N1          1.3749   -0.0588    3.2065 N.am      1 <0>        -0.6307
     11 C9          2.5505   -0.7793    2.6938 C.3       1 <0>         0.0784
     12 C10         3.7751    0.1320    2.8274 C.3       1 <0>        -0.0217
     13 N2          3.8995    0.5819    4.2196 N.4       1 <0>        -0.3863
     14 C11         2.7457    1.4150    4.5810 C.3       1 <0>        -0.0200
     15 C12         1.4721    0.5721    4.5318 C.3       1 <0>         0.0864
     16 C13         5.1332    1.3649    4.3709 C.3       1 <0>        -0.0471
     17 C14        -0.2110   -2.8632   -2.4511 C.ar      1 <0>         0.1251
     18 C15        -0.5389   -2.1775   -3.6349 C.ar      1 <0>         0.0912
     19 N3         -0.6443   -2.8229   -4.7720 N.ar      1 <0>        -0.4142
     20 C16        -0.4381   -4.1456   -4.8094 C.ar      1 <0>         0.0834
     21 C17        -0.5450   -4.8580   -6.0159 C.ar      1 <0>        -0.0813
     22 C18        -0.3324   -6.2033   -6.0375 C.ar      1 <0>        -0.0877
     23 C19        -0.0070   -6.8987   -4.8780 C.ar      1 <0>        -0.0819
     24 C20         0.1092   -6.2379   -3.6685 C.ar      1 <0>        -0.0155
     25 C21        -0.1073   -4.8385   -3.6179 C.ar      1 <0>         0.0978
     26 N4          0.0013   -4.1685   -2.4702 N.ar      1 <0>        -0.4039
     27 C22         0.4565   -6.9858   -2.4381 C.ar      1 <0>        -0.0398
     28 C23         1.4835   -6.5332   -1.6100 C.ar      1 <0>        -0.0785
     29 C24         1.8021   -7.2340   -0.4649 C.ar      1 <0>        -0.1208
     30 C25         1.1051   -8.3834   -0.1375 C.ar      1 <0>        -0.0769
     31 C26         0.0854   -8.8374   -0.9549 C.ar      1 <0>        -0.0946
     32 C27        -0.2460   -8.1423   -2.0999 C.ar      1 <0>        -0.0995
     33 C28         1.4585   -9.1444    1.1144 C.3       1 <0>         0.0978
     34 N5          0.6619   -8.6346    2.2385 N.3       1 <0>        -0.5519
     35 C29         0.9935   -7.2372    2.5258 C.3       1 <0>         0.0558
     36 C30        -0.1148   -6.6024    3.3723 C.3       1 <0>        -0.5952
     37 S1         -0.2150   -7.4922    4.9554 S.o2      1 <0>         2.4060
     38 O2         -1.4304   -7.1354    5.5994 O.2       1 <0>        -0.9379
     39 O3          1.0135   -7.3222    5.6491 O.2       1 <0>        -0.9409
     40 C31        -0.3384   -9.2200    4.4008 C.3       1 <0>        -0.5946
     41 C32         0.8005   -9.4976    3.4139 C.3       1 <0>         0.0636
     42 H1          0.2406    1.9922   -0.0136 H         1 <0>         0.0727
     43 H2         -1.3615    1.6322   -0.7006 H         1 <0>         0.0787
     44 H3         -1.1285    1.6284    1.0640 H         1 <0>         0.0928
     45 H4         -0.7554   -0.2553   -2.0234 H         1 <0>         0.1414
     46 H5          0.5851   -3.8217   -0.0573 H         1 <0>         0.1453
     47 H6          0.7741   -2.5863    2.0578 H         1 <0>         0.1316
     48 H7          2.7053   -1.6883    3.2750 H         1 <0>         0.0997
     49 H8          2.3958   -1.0334    1.6452 H         1 <0>         0.1351
     50 H9          4.6711   -0.4191    2.5421 H         1 <0>         0.1459
     51 H10         3.6572    0.9972    2.1751 H         1 <0>         0.1345
     52 H11         2.8833    1.8094    5.5878 H         1 <0>         0.1462
     53 H12         2.6590    2.2414    3.8756 H         1 <0>         0.1340
     54 H13         0.6047    1.2110    4.6979 H         1 <0>         0.1386
     55 H14         1.5161   -0.1981    5.3018 H         1 <0>         0.0978
     56 H15         5.0970    2.2312    3.7103 H         1 <0>         0.1223
     57 H16         5.2268    1.6995    5.4040 H         1 <0>         0.1267
     58 H17         5.9912    0.7451    4.1105 H         1 <0>         0.1262
     59 H18        -0.7056   -1.1108   -3.6072 H         1 <0>         0.1757
     60 H19        -0.7966   -4.3377   -6.9282 H         1 <0>         0.1453
     61 H20        -0.4183   -6.7391   -6.9713 H         1 <0>         0.1444
     62 H21         0.1562   -7.9654   -4.9223 H         1 <0>         0.1425
     63 H22         2.0285   -5.6363   -1.8647 H         1 <0>         0.1201
     64 H23         2.5974   -6.8848    0.1770 H         1 <0>         0.1207
     65 H24        -0.4551   -9.7353   -0.6941 H         1 <0>         0.1283
     66 H25        -1.0452   -8.4952   -2.7349 H         1 <0>         0.1262
     67 H26         1.2450  -10.2032    0.9684 H         1 <0>         0.0948
     68 H27         2.5186   -9.0141    1.3317 H         1 <0>         0.0536
     69 H28         1.9361   -7.1935    3.0714 H         1 <0>         0.0575
     70 H29         1.0929   -6.6887    1.5891 H         1 <0>         0.1065
     71 H30         0.1199   -5.5539    3.5560 H         1 <0>         0.1331
     72 H31        -1.0668   -6.6808    2.8474 H         1 <0>         0.1437
     73 H32        -0.2502   -9.8870    5.2585 H         1 <0>         0.1422
     74 H33        -1.2972   -9.3785    3.9074 H         1 <0>         0.1449
     75 H34         0.7639  -10.5416    3.1029 H         1 <0>         0.1039
     76 H35         1.7563   -9.2986    3.8985 H         1 <0>         0.0614
     77 H36         3.9370   -0.2213    4.8293 H         1 <0>         0.4263
@<TRIPOS>BOND
     1    1    2 1
     2    1   42 1
     3    1   43 1
     4    1   44 1
     5    2    7 ar
     6    2    3 ar
     7    3    4 ar
     8    3   45 1
     9    4    5 ar
    10    4   17 1
    11    5    6 ar
    12    5   46 1
    13    6    7 ar
    14    6   47 1
    15    7    8 1
    16    8    9 2
    17    8   10 am
    18   10   15 1
    19   10   11 1
    20   11   12 1
    21   11   48 1
    22   11   49 1
    23   12   13 1
    24   12   50 1
    25   12   51 1
    26   13   14 1
    27   13   16 1
    28   13   77 1
    29   14   15 1
    30   14   52 1
    31   14   53 1
    32   15   54 1
    33   15   55 1
    34   16   56 1
    35   16   57 1
    36   16   58 1
    37   17   26 ar
    38   17   18 ar
    39   18   19 ar
    40   18   59 1
    41   19   20 ar
    42   20   25 ar
    43   20   21 ar
    44   21   22 ar
    45   21   60 1
    46   22   23 ar
    47   22   61 1
    48   23   24 ar
    49   23   62 1
    50   24   25 ar
    51   24   27 1
    52   25   26 ar
    53   27   32 ar
    54   27   28 ar
    55   28   29 ar
    56   28   63 1
    57   29   30 ar
    58   29   64 1
    59   30   31 ar
    60   30   33 1
    61   31   32 ar
    62   31   65 1
    63   32   66 1
    64   33   34 1
    65   33   67 1
    66   33   68 1
    67   34   41 1
    68   34   35 1
    69   35   36 1
    70   35   69 1
    71   35   70 1
    72   36   37 1
    73   36   71 1
    74   36   72 1
    75   37   38 2
    76   37   39 2
    77   37   40 1
    78   40   41 1
    79   40   73 1
    80   40   74 1
    81   41   75 1
    82   41   76 1
@<TRIPOS>MOLECULE
CHEMBL1092063__1
   76    81     0     0     0
SMALL
USER_CHARGES

@<TRIPOS>ATOM
      1 C1         -0.6570    1.3993    0.1023 C.3       1 <0>        -0.1356
      2 C2         -0.3112   -0.0668    0.0543 C.ar      1 <0>        -0.0322
      3 C3         -0.4172   -0.7610   -1.1303 C.ar      1 <0>        -0.1008
      4 C4         -0.0972   -2.1182   -1.1750 C.ar      1 <0>        -0.0257
      5 C5          0.3301   -2.7734   -0.0193 C.ar      1 <0>        -0.0850
      6 C6          0.4362   -2.0809    1.1658 C.ar      1 <0>        -0.0891
      7 C7          0.1223   -0.7203    1.2099 C.ar      1 <0>        -0.1152
      8 C8          0.2427    0.0255    2.4802 C.2       1 <0>         0.5644
      9 O1         -0.6794    0.7151    2.8698 O.2       1 <0>        -0.5262
     10 N1          1.3749   -0.0588    3.2065 N.am      1 <0>        -0.6081
     11 C9          2.5495   -0.7796    2.6926 C.3       1 <0>         0.1068
     12 C10         3.7719    0.1373    2.8077 C.3       1 <0>         0.0395
     13 N2          3.8929    0.6153    4.1915 N.3       1 <0>        -0.5429
     14 C11         2.7335    1.4311    4.5767 C.3       1 <0>         0.0402
     15 C12         1.4706    0.5725    4.5314 C.3       1 <0>         0.1146
     16 C13         5.1461    1.3571    4.3845 C.3       1 <0>         0.0246
     17 C14        -0.2116   -2.8646   -2.4503 C.ar      1 <0>         0.1409
     18 C15        -0.5353   -2.1786   -3.6350 C.ar      1 <0>         0.0913
     19 N3         -0.6408   -2.8242   -4.7719 N.ar      1 <0>        -0.4176
     20 C16        -0.4388   -4.1476   -4.8082 C.ar      1 <0>         0.0776
     21 C17        -0.5458   -4.8603   -6.0145 C.ar      1 <0>        -0.0807
     22 C18        -0.3373   -6.2063   -6.0350 C.ar      1 <0>        -0.0936
     23 C19        -0.0162   -6.9021   -4.8745 C.ar      1 <0>        -0.0858
     24 C20         0.1000   -6.2410   -3.6652 C.ar      1 <0>        -0.0142
     25 C21        -0.1121   -4.8408   -3.6157 C.ar      1 <0>         0.0993
     26 N4         -0.0034   -4.1706   -2.4682 N.ar      1 <0>        -0.4088
     27 C22         0.4429   -6.9893   -2.4337 C.ar      1 <0>        -0.0402
     28 C23         1.4699   -6.5394   -1.6041 C.ar      1 <0>        -0.0762
     29 C24         1.7843   -7.2406   -0.4581 C.ar      1 <0>        -0.1189
     30 C25         1.0832   -8.3876   -0.1313 C.ar      1 <0>        -0.0772
     31 C26         0.0634   -8.8388   -0.9501 C.ar      1 <0>        -0.0967
     32 C27        -0.2638   -8.1434   -2.0961 C.ar      1 <0>        -0.1015
     33 C28         1.4320   -9.1489    1.1216 C.3       1 <0>         0.0984
     34 N5          0.6351   -8.6361    2.2441 N.3       1 <0>        -0.5520
     35 C29         0.9706   -7.2395    2.5312 C.3       1 <0>         0.0544
     36 C30        -0.1371   -6.6007    3.3755 C.3       1 <0>        -0.5941
     37 S1         -0.2428   -7.4893    4.9589 S.o2      1 <0>         2.4062
     38 O2         -1.4582   -7.1283    5.6006 O.2       1 <0>        -0.9393
     39 O3          0.9850   -7.3228    5.6545 O.2       1 <0>        -0.9375
     40 C31        -0.3707   -9.2171    4.4051 C.3       1 <0>        -0.5963
     41 C32         0.7689   -9.4987    3.4202 C.3       1 <0>         0.0641
     42 H1          0.2510    1.9908   -0.0149 H         1 <0>         0.0716
     43 H2         -1.3511    1.6354   -0.7042 H         1 <0>         0.0726
     44 H3         -1.1209    1.6319    1.0608 H         1 <0>         0.0946
     45 H4         -0.7486   -0.2548   -2.0249 H         1 <0>         0.1365
     46 H5          0.5774   -3.8242   -0.0545 H         1 <0>         0.1415
     47 H6          0.7666   -2.5882    2.0602 H         1 <0>         0.1333
     48 H7          2.7119   -1.6821    3.2817 H         1 <0>         0.0811
     49 H8          2.3880   -1.0450    1.6478 H         1 <0>         0.0936
     50 H9          4.6696   -0.4175    2.5348 H         1 <0>         0.0901
     51 H10         3.6523    0.9888    2.1379 H         1 <0>         0.0398
     52 H11         2.8782    1.8147    5.5866 H         1 <0>         0.0910
     53 H12         2.6284    2.2646    3.8822 H         1 <0>         0.0395
     54 H13         0.5961    1.2005    4.7018 H         1 <0>         0.0993
     55 H14         1.5273   -0.1976    5.3007 H         1 <0>         0.0794
     56 H15         5.1663    2.2168    3.7147 H         1 <0>         0.0266
     57 H16         5.2101    1.6996    5.4173 H         1 <0>         0.0718
     58 H17         5.9916    0.7054    4.1648 H         1 <0>         0.0715
     59 H18        -0.6987   -1.1113   -3.6082 H         1 <0>         0.1765
     60 H19        -0.7942   -4.3398   -6.9275 H         1 <0>         0.1424
     61 H20        -0.4233   -6.7424   -6.9685 H         1 <0>         0.1410
     62 H21         0.1437   -7.9693   -4.9179 H         1 <0>         0.1400
     63 H22         2.0182   -5.6444   -1.8584 H         1 <0>         0.1217
     64 H23         2.5796   -6.8935    0.1849 H         1 <0>         0.1229
     65 H24        -0.4803   -9.7348   -0.6897 H         1 <0>         0.1264
     66 H25        -1.0630   -8.4941   -2.7322 H         1 <0>         0.1243
     67 H26         1.2154  -10.2072    0.9759 H         1 <0>         0.0926
     68 H27         2.4922   -9.0218    1.3407 H         1 <0>         0.0535
     69 H28         1.9124   -7.1984    3.0784 H         1 <0>         0.0602
     70 H29         1.0734   -6.6918    1.5944 H         1 <0>         0.1078
     71 H30         0.1005   -5.5529    3.5589 H         1 <0>         0.1383
     72 H31        -1.0885   -6.6764    2.8490 H         1 <0>         0.1427
     73 H32        -0.2861   -9.8838    5.2632 H         1 <0>         0.1398
     74 H33        -1.3292   -9.3728    3.9100 H         1 <0>         0.1431
     75 H34         0.7296  -10.5429    3.1098 H         1 <0>         0.1013
     76 H35         1.7246   -9.3025    3.9064 H         1 <0>         0.0613
@<TRIPOS>BOND
     1    1    2 1
     2    1   42 1
     3    1   43 1
     4    1   44 1
     5    2    7 ar
     6    2    3 ar
     7    3    4 ar
     8    3   45 1
     9    4    5 ar
    10    4   17 1
    11    5    6 ar
    12    5   46 1
    13    6    7 ar
    14    6   47 1
    15    7    8 1
    16    8    9 2
    17    8   10 am
    18   10   15 1
    19   10   11 1
    20   11   12 1
    21   11   48 1
    22   11   49 1
    23   12   13 1
    24   12   50 1
    25   12   51 1
    26   13   14 1
    27   13   16 1
    28   14   15 1
    29   14   52 1
    30   14   53 1
    31   15   54 1
    32   15   55 1
    33   16   56 1
    34   16   57 1
    35   16   58 1
    36   17   26 ar
    37   17   18 ar
    38   18   19 ar
    39   18   59 1
    40   19   20 ar
    41   20   25 ar
    42   20   21 ar
    43   21   22 ar
    44   21   60 1
    45   22   23 ar
    46   22   61 1
    47   23   24 ar
    48   23   62 1
    49   24   25 ar
    50   24   27 1
    51   25   26 ar
    52   27   32 ar
    53   27   28 ar
    54   28   29 ar
    55   28   63 1
    56   29   30 ar
    57   29   64 1
    58   30   31 ar
    59   30   33 1
    60   31   32 ar
    61   31   65 1
    62   32   66 1
    63   33   34 1
    64   33   67 1
    65   33   68 1
    66   34   41 1
    67   34   35 1
    68   35   36 1
    69   35   69 1
    70   35   70 1
    71   36   37 1
    72   36   71 1
    73   36   72 1
    74   37   38 2
    75   37   39 2
    76   37   40 1
    77   40   41 1
    78   40   73 1
    79   40   74 1
    80   41   75 1
    81   41   76 1
@<TRIPOS>MOLECULE
CHEMBL221037
   54    58     0     0     0
SMALL
USER_CHARGES

@<TRIPOS>ATOM
      1 C1         -0.0187    1.5258    0.0104 C.3       1 <0>        -0.1672
      2 C2          0.0021   -0.0041    0.0020 C.3       1 <0>         0.1915
      3 H1          0.5123   -0.3556   -0.8948 H         1 <0>         0.0969
      4 C3          0.7309   -0.5033    1.2229 C.ar      1 <0>        -0.1044
      5 C4          0.0808   -0.5585    2.4416 C.ar      1 <0>        -0.1132
      6 C5          0.7494   -1.0164    3.5615 C.ar      1 <0>        -0.1127
      7 C6          2.0680   -1.4196    3.4626 C.ar      1 <0>        -0.1100
      8 C7          2.7178   -1.3652    2.2438 C.ar      1 <0>        -0.1122
      9 C8          2.0479   -0.9113    1.1230 C.ar      1 <0>        -0.1045
     10 N1         -1.3723   -0.5112    0.0124 N.pl3     1 <0>        -0.6890
     11 C9         -2.0702   -0.6465   -1.1776 C.ar      1 <0>         0.5018
     12 C10        -1.4722   -0.3088   -2.3884 C.ar      1 <0>        -0.3427
     13 C11        -2.2120   -0.4614   -3.5571 C.ar      1 <0>         0.5177
     14 N2         -3.4586   -0.9222   -3.4789 N.ar      1 <0>        -0.6127
     15 C12        -3.9941   -1.2331   -2.3098 C.ar      1 <0>         0.5892
     16 N3         -3.3193   -1.1063   -1.1786 N.ar      1 <0>        -0.6061
     17 N4         -5.3010   -1.7121   -2.2691 N.pl3     1 <0>        -0.3544
     18 C13        -6.1236   -1.9110   -3.3383 C.cat     1 <0>         0.4279
     19 N5         -7.2755   -2.3673   -2.9377 N.pl3     1 <0>        -0.4844
     20 C14        -7.2736   -2.4928   -1.5901 C.ar      1 <0>         0.0855
     21 C15        -6.0048   -2.0803   -1.1377 C.ar      1 <0>         0.0284
     22 C16        -5.7310   -2.1157    0.2190 C.ar      1 <0>         0.1920
     23 N6         -6.6477   -2.5335    1.0703 N.ar      1 <0>        -0.4396
     24 C17        -7.8466   -2.9303    0.6792 C.ar      1 <0>         0.1351
     25 C18        -8.2064   -2.9210   -0.6394 C.ar      1 <0>        -0.1279
     26 N7         -1.6586   -0.1376   -4.7862 N.pl3     1 <0>        -0.5913
     27 C19        -2.3689   -0.1487   -6.0780 C.3       1 <0>         0.1139
     28 C20        -1.5761    0.8345   -6.9749 C.3       1 <0>        -0.1730
     29 C21        -0.1167    0.5574   -6.5269 C.3       1 <0>         0.0953
     30 H2          0.2867   -0.3132   -7.0441 H         1 <0>         0.0829
     31 C22        -0.2679    0.2800   -5.0164 C.3       1 <0>         0.1159
     32 O1          0.7072    1.7031   -6.7511 O.3       1 <0>        -0.5563
     33 H3          1.0039    1.9031    0.0027 H         1 <0>         0.0792
     34 H4         -0.5459    1.8868   -0.8726 H         1 <0>         0.0643
     35 H5         -0.5289    1.8773    0.9072 H         1 <0>         0.0675
     36 H6         -0.9493   -0.2435    2.5188 H         1 <0>         0.1194
     37 H7          0.2417   -1.0589    4.5138 H         1 <0>         0.1274
     38 H8          2.5905   -1.7767    4.3377 H         1 <0>         0.1275
     39 H9          3.7481   -1.6798    2.1666 H         1 <0>         0.1287
     40 H10         2.5545   -0.8723    0.1700 H         1 <0>         0.1258
     41 H11        -1.7940   -0.7522    0.8520 H         1 <0>         0.4132
     42 H12        -0.4587    0.0631   -2.4200 H         1 <0>         0.1562
     43 H13        -5.8584   -1.7179   -4.3673 H         1 <0>         0.2787
     44 H14        -4.7636   -1.8006    0.5813 H         1 <0>         0.1950
     45 H15        -8.5597   -3.2633    1.4187 H         1 <0>         0.1910
     46 H16        -9.1892   -3.2499   -0.9431 H         1 <0>         0.1697
     47 H17        -2.3563   -1.1498   -6.5092 H         1 <0>         0.0766
     48 H18        -3.3945    0.1973   -5.9500 H         1 <0>         0.0843
     49 H19        -1.7126    0.5976   -8.0301 H         1 <0>         0.0957
     50 H20        -1.8589    1.8667   -6.7681 H         1 <0>         0.0902
     51 H21        -0.0537    1.1852   -4.4482 H         1 <0>         0.0885
     52 H22         0.4128   -0.5173   -4.7180 H         1 <0>         0.0848
     53 H23         0.7704    1.9666   -7.6794 H         1 <0>         0.3930
     54 H24        -8.0222   -2.5842   -3.5175 H         1 <0>         0.4710
@<TRIPOS>BOND
     1    1    2 1
     2    1   33 1
     3    1   34 1
     4    1   35 1
     5    2    3 1
     6    2    4 1
     7    2   10 1
     8    4    9 ar
     9    4    5 ar
    10    5    6 ar
    11    5   36 1
    12    6    7 ar
    13    6   37 1
    14    7    8 ar
    15    7   38 1
    16    8    9 ar
    17    8   39 1
    18    9   40 1
    19   10   11 1
    20   10   41 1
    21   11   16 ar
    22   11   12 ar
    23   12   13 ar
    24   12   42 1
    25   13   14 ar
    26   13   26 1
    27   14   15 ar
    28   15   16 ar
    29   15   17 1
    30   17   21 1
    31   17   18 1
    32   18   19 2
    33   18   43 1
    34   19   20 1
    35   19   54 1
    36   20   25 ar
    37   20   21 ar
    38   21   22 ar
    39   22   23 ar
    40   22   44 1
    41   23   24 ar
    42   24   25 ar
    43   24   45 1
    44   25   46 1
    45   26   31 1
    46   26   27 1
    47   27   28 1
    48   27   47 1
    49   27   48 1
    50   28   29 1
    51   28   49 1
    52   28   50 1
    53   29   30 1
    54   29   31 1
    55   29   32 1
    56   31   51 1
    57   31   52 1
    58   32   53 1
@<TRIPOS>MOLECULE
CHEMBL1078971
   60    63     0     0     0
SMALL
USER_CHARGES

@<TRIPOS>ATOM
      1 C1          0.6561    1.2130   -0.3841 C.3       1 <0>        -0.0453
      2 N1          0.4808   -0.2429   -0.2978 N.4       1 <0>        -0.3881
      3 C2         -0.9505   -0.5585   -0.2010 C.3       1 <0>        -0.0017
      4 C3         -1.1347   -2.0760   -0.1300 C.3       1 <0>         0.0245
      5 N2         -0.4197   -2.5992    1.0426 N.3       1 <0>        -0.5340
      6 C4          1.0108   -2.2691    0.9718 C.3       1 <0>         0.0200
      7 C5          1.1773   -0.7500    0.8918 C.3       1 <0>        -0.0023
      8 C6         -0.6195   -4.0482    1.1778 C.3       1 <0>         0.1058
      9 C7         -0.0849   -4.5069    2.5100 C.ar      1 <0>        -0.1311
     10 C8          1.2343   -4.9058    2.6237 C.ar      1 <0>        -0.0959
     11 C9          1.7274   -5.3267    3.8431 C.ar      1 <0>        -0.1159
     12 C10         0.8968   -5.3486    4.9562 C.ar      1 <0>         0.1991
     13 C11        -0.4276   -4.9468    4.8387 C.ar      1 <0>        -0.1570
     14 C12        -0.9130   -4.5225    3.6174 C.ar      1 <0>        -0.0698
     15 N3          1.3927   -5.7746    6.1921 N.pl3     1 <0>        -0.6460
     16 C13         2.7109   -5.5205    6.5344 C.ar      1 <0>         0.5554
     17 N4          3.4541   -4.7732    5.7307 N.ar      1 <0>        -0.5869
     18 C14         4.7176   -4.5071    6.0226 C.ar      1 <0>         0.1766
     19 C15         5.2660   -5.0187    7.1847 C.ar      1 <0>        -0.2843
     20 C16         4.4582   -5.8035    8.0130 C.ar      1 <0>         0.3071
     21 N5          3.1940   -6.0257    7.6583 N.ar      1 <0>        -0.5694
     22 C17         4.9988   -6.3749    9.2686 C.ar      1 <0>        -0.2029
     23 C18         6.3216   -6.1272    9.6361 C.ar      1 <0>        -0.0363
     24 C19         6.8220   -6.6592   10.8044 C.ar      1 <0>        -0.1924
     25 C20         6.0095   -7.4427   11.6170 C.ar      1 <0>         0.3158
     26 C21         4.6906   -7.6914   11.2524 C.ar      1 <0>        -0.2706
     27 C22         4.1842   -7.1567   10.0879 C.ar      1 <0>        -0.0035
     28 N6          6.5180   -7.9799   12.7984 N.2       1 <0>        -1.0867
     29 S1          5.5516   -8.9129   13.7670 S.o2      1 <0>         2.5288
     30 O1          4.5235   -8.0358   14.2061 O.2       1 <0>        -1.0250
     31 O2          5.2425  -10.0543   12.9789 O.2       1 <0>        -1.0247
     32 C23         6.6086   -9.3854   15.1634 C.3       1 <0>        -0.6370
     33 H1          1.7181    1.4474   -0.4572 H         1 <0>         0.1234
     34 H2          0.1392    1.5896   -1.2668 H         1 <0>         0.1223
     35 H3          0.2411    1.6824    0.5079 H         1 <0>         0.1225
     36 H4         -1.3637   -0.1000    0.6975 H         1 <0>         0.1369
     37 H5         -1.4683   -0.1703   -1.0780 H         1 <0>         0.1334
     38 H6         -2.1958   -2.3099   -0.0432 H         1 <0>         0.1223
     39 H7         -0.7340   -2.5337   -1.0345 H         1 <0>         0.0586
     40 H8          1.5150   -2.6439    1.8625 H         1 <0>         0.1312
     41 H9          1.4469   -2.7300    0.0855 H         1 <0>         0.0588
     42 H10         2.2370   -0.5038    0.8248 H         1 <0>         0.1349
     43 H11         0.7533   -0.2905    1.7846 H         1 <0>         0.1375
     44 H12        -1.6837   -4.2756    1.1156 H         1 <0>         0.0928
     45 H13        -0.0903   -4.5643    0.3767 H         1 <0>         0.0519
     46 H14         1.8796   -4.8886    1.7578 H         1 <0>         0.1157
     47 H15         2.7576   -5.6389    3.9310 H         1 <0>         0.1386
     48 H16        -1.0760   -4.9626    5.7023 H         1 <0>         0.1265
     49 H17        -1.9416   -4.2061    3.5262 H         1 <0>         0.1228
     50 H18         0.8138   -6.2481    6.8098 H         1 <0>         0.4242
     51 H19         5.3139   -3.8973    5.3601 H         1 <0>         0.1613
     52 H20         6.2943   -4.8169    7.4460 H         1 <0>         0.1449
     53 H21         6.9530   -5.5192    9.0052 H         1 <0>         0.1118
     54 H22         7.8461   -6.4680   11.0891 H         1 <0>         0.1191
     55 H23         4.0616   -8.3006   11.8846 H         1 <0>         0.1074
     56 H24         3.1585   -7.3461    9.8076 H         1 <0>         0.1146
     57 H25         6.9511   -8.4886   15.6796 H         1 <0>         0.1170
     58 H26         6.0406  -10.0080   15.8547 H         1 <0>         0.1046
     59 H27         7.4693   -9.9436   14.7950 H         1 <0>         0.1171
     60 H28         0.8654   -0.6773   -1.1233 H         1 <0>         0.4213
@<TRIPOS>BOND
     1    1    2 1
     2    1   33 1
     3    1   34 1
     4    1   35 1
     5    2    7 1
     6    2    3 1
     7    2   60 1
     8    3    4 1
     9    3   36 1
    10    3   37 1
    11    4    5 1
    12    4   38 1
    13    4   39 1
    14    5    6 1
    15    5    8 1
    16    6    7 1
    17    6   40 1
    18    6   41 1
    19    7   42 1
    20    7   43 1
    21    8    9 1
    22    8   44 1
    23    8   45 1
    24    9   14 ar
    25    9   10 ar
    26   10   11 ar
    27   10   46 1
    28   11   12 ar
    29   11   47 1
    30   12   13 ar
    31   12   15 1
    32   13   14 ar
    33   13   48 1
    34   14   49 1
    35   15   16 1
    36   15   50 1
    37   16   21 ar
    38   16   17 ar
    39   17   18 ar
    40   18   19 ar
    41   18   51 1
    42   19   20 ar
    43   19   52 1
    44   20   21 ar
    45   20   22 1
    46   22   27 ar
    47   22   23 ar
    48   23   24 ar
    49   23   53 1
    50   24   25 ar
    51   24   54 1
    52   25   26 ar
    53   25   28 1
    54   26   27 ar
    55   26   55 1
    56   27   56 1
    57   28   29 1
    58   29   30 2
    59   29   31 2
    60   29   32 1
    61   32   57 1
    62   32   58 1
    63   32   59 1
@<TRIPOS>MOLECULE
CHEMBL1078971__1
   60    63     0     0     0
SMALL
USER_CHARGES

@<TRIPOS>ATOM
      1 C1          0.6402    1.2346   -0.4197 C.3       1 <0>         0.0200
      2 N1          0.4721   -0.2217   -0.3257 N.3       1 <0>        -0.5436
      3 C2         -0.9512   -0.5873   -0.3030 C.3       1 <0>         0.0247
      4 C3         -1.0828   -2.1114   -0.2650 C.3       1 <0>        -0.0023
      5 N2         -0.4069   -2.6317    0.9308 N.4       1 <0>        -0.3854
      6 C4          1.0184   -2.2799    0.8818 C.3       1 <0>        -0.0063
      7 C5          1.1674   -0.7572    0.8533 C.3       1 <0>         0.0263
      8 C6         -0.5490   -4.0931    0.9764 C.3       1 <0>         0.0533
      9 C7          0.0367   -4.6148    2.2632 C.ar      1 <0>        -0.2028
     10 C8          1.3723   -4.9686    2.3198 C.ar      1 <0>        -0.0725
     11 C9          1.9122   -5.4471    3.4974 C.ar      1 <0>        -0.1172
     12 C10         1.1121   -5.5723    4.6259 C.ar      1 <0>         0.2299
     13 C11        -0.2290   -5.2157    4.5658 C.ar      1 <0>        -0.1596
     14 C12        -0.7614   -4.7333    3.3863 C.ar      1 <0>        -0.0652
     15 N3          1.6554   -6.0568    5.8196 N.pl3     1 <0>        -0.6438
     16 C13         2.9715   -5.7740    6.1467 C.ar      1 <0>         0.5491
     17 N4          3.6653   -4.9486    5.3760 N.ar      1 <0>        -0.5897
     18 C14         4.9251   -4.6527    5.6548 C.ar      1 <0>         0.1771
     19 C15         5.5222   -5.2158    6.7681 C.ar      1 <0>        -0.2775
     20 C16         4.7659   -6.0828    7.5625 C.ar      1 <0>         0.3086
     21 N5          3.5021   -6.3308    7.2239 N.ar      1 <0>        -0.5660
     22 C17         5.3598   -6.7119    8.7654 C.ar      1 <0>        -0.2061
     23 C18         6.6815   -6.4369    9.1171 C.ar      1 <0>        -0.0352
     24 C19         7.2315   -7.0226   10.2363 C.ar      1 <0>        -0.1915
     25 C20         6.4701   -7.8875   11.0153 C.ar      1 <0>         0.3178
     26 C21         5.1523   -8.1634   10.6663 C.ar      1 <0>        -0.2707
     27 C22         4.5964   -7.5755    9.5511 C.ar      1 <0>        -0.0025
     28 N6          7.0286   -8.4788   12.1471 N.2       1 <0>        -1.0850
     29 S1          6.1232   -9.5087   13.0755 S.o2      1 <0>         2.5293
     30 O1          5.0748   -8.7021   13.5946 O.2       1 <0>        -1.0245
     31 O2          5.8365  -10.6086   12.2225 O.2       1 <0>        -1.0242
     32 C23         7.2329  -10.0281   14.4132 C.3       1 <0>        -0.6367
     33 H1          1.7006    1.4735   -0.5009 H         1 <0>         0.0834
     34 H2          0.1159    1.6048   -1.3007 H         1 <0>         0.0818
     35 H3          0.2289    1.7062    0.4728 H         1 <0>         0.0383
     36 H4         -1.4226   -0.1593    0.5817 H         1 <0>         0.0589
     37 H5         -1.4399   -0.2022   -1.1981 H         1 <0>         0.1212
     38 H6         -2.1377   -2.3843   -0.2338 H         1 <0>         0.1341
     39 H7         -0.6234   -2.5381   -1.1566 H         1 <0>         0.1365
     40 H8          1.5213   -2.6777    1.7632 H         1 <0>         0.1399
     41 H9          1.4670   -2.7057   -0.0157 H         1 <0>         0.1355
     42 H10         2.2245   -0.4961    0.8018 H         1 <0>         0.1223
     43 H11         0.7310   -0.3320    1.7571 H         1 <0>         0.0595
     44 H12        -1.6052   -4.3572    0.9245 H         1 <0>         0.1327
     45 H13        -0.0218   -4.5359    0.1314 H         1 <0>         0.1325
     46 H14         1.9939   -4.8709    1.4420 H         1 <0>         0.1292
     47 H15         2.9552   -5.7239    3.5408 H         1 <0>         0.1480
     48 H16        -0.8537   -5.3118    5.4415 H         1 <0>         0.1352
     49 H17        -1.8031   -4.4520    3.3399 H         1 <0>         0.1293
     50 H18         1.1107   -6.5910    6.4188 H         1 <0>         0.4277
     51 H19         5.4809   -3.9790    5.0194 H         1 <0>         0.1645
     52 H20         6.5487   -4.9913    7.0178 H         1 <0>         0.1476
     53 H21         7.2732   -5.7657    8.5123 H         1 <0>         0.1124
     54 H22         8.2548   -6.8103   10.5088 H         1 <0>         0.1202
     55 H23         4.5631   -8.8358   11.2722 H         1 <0>         0.1079
     56 H24         3.5716   -7.7863    9.2832 H         1 <0>         0.1143
     57 H25         7.5549   -9.1534   14.9783 H         1 <0>         0.1174
     58 H26         6.7065  -10.7152   15.0757 H         1 <0>         0.1052
     59 H27         8.1040  -10.5277   13.9893 H         1 <0>         0.1175
     60 H28        -0.8247   -2.2276    1.7556 H         1 <0>         0.4190
@<TRIPOS>BOND
     1    1    2 1
     2    1   33 1
     3    1   34 1
     4    1   35 1
     5    2    7 1
     6    2    3 1
     7    3    4 1
     8    3   36 1
     9    3   37 1
    10    4    5 1
    11    4   38 1
    12    4   39 1
    13    5    6 1
    14    5    8 1
    15    5   60 1
    16    6    7 1
    17    6   40 1
    18    6   41 1
    19    7   42 1
    20    7   43 1
    21    8    9 1
    22    8   44 1
    23    8   45 1
    24    9   14 ar
    25    9   10 ar
    26   10   11 ar
    27   10   46 1
    28   11   12 ar
    29   11   47 1
    30   12   13 ar
    31   12   15 1
    32   13   14 ar
    33   13   48 1
    34   14   49 1
    35   15   16 1
    36   15   50 1
    37   16   21 ar
    38   16   17 ar
    39   17   18 ar
    40   18   19 ar
    41   18   51 1
    42   19   20 ar
    43   19   52 1
    44   20   21 ar
    45   20   22 1
    46   22   27 ar
    47   22   23 ar
    48   23   24 ar
    49   23   53 1
    50   24   25 ar
    51   24   54 1
    52   25   26 ar
    53   25   28 1
    54   26   27 ar
    55   26   55 1
    56   27   56 1
    57   28   29 1
    58   29   30 2
    59   29   31 2
    60   29   32 1
    61   32   57 1
    62   32   58 1
    63   32   59 1
@<TRIPOS>MOLECULE
CHEMBL21156
   39    42     0     0     0
SMALL
USER_CHARGES

@<TRIPOS>ATOM
      1 C1         -0.0187    1.5258    0.0104 C.3       1 <0>        -0.1436
      2 C2          0.0021   -0.0041    0.0020 C.3       1 <0>         0.0140
      3 C3          0.7421   -0.5109    1.2415 C.3       1 <0>        -0.1487
      4 C4         -1.4333   -0.5336    0.0129 C.3       1 <0>        -0.1303
      5 C5          0.7074   -0.4901   -1.2379 C.2       1 <0>         0.2638
      6 N1          0.1210   -0.9968   -2.2839 N.2       1 <0>        -0.4558
      7 C6          1.0486   -1.3263   -3.2084 C.ar      1 <0>         0.0326
      8 C7          0.9566   -1.9189   -4.5414 C.ar      1 <0>         0.1179
      9 C8         -0.2971   -2.2664   -5.1011 C.2       1 <0>        -0.2034
     10 C9         -0.3495   -2.8105   -6.3319 C.2       1 <0>         0.1351
     11 N2          0.7810   -3.0381   -7.0598 N.am      1 <0>        -0.6141
     12 H1          0.7050   -3.4317   -7.9431 H         1 <0>         0.4196
     13 C10         2.0010   -2.7282   -6.5795 C.2       1 <0>         0.5428
     14 O1          2.9965   -2.9413   -7.2504 O.2       1 <0>        -0.5361
     15 C11         2.1202   -2.1528   -5.2909 C.ar      1 <0>        -0.1817
     16 C12         3.4288   -1.8026   -4.7367 C.ar      1 <0>         0.0348
     17 C13         4.6006   -2.0263   -5.4670 C.ar      1 <0>        -0.1436
     18 C14         5.8191   -1.6868   -4.9228 C.ar      1 <0>         0.1070
     19 C15         5.8943   -1.1230   -3.6520 C.ar      1 <0>        -0.1478
     20 C16         4.7656   -0.8960   -2.9212 C.ar      1 <0>        -0.0830
     21 C17         3.5109   -1.2301   -3.4474 C.ar      1 <0>        -0.0389
     22 C18         2.2926   -0.9925   -2.6793 C.ar      1 <0>         0.0700
     23 N3          2.0521   -0.4604   -1.4359 N.pl3     1 <0>        -0.5630
     24 F1          6.9511   -1.9031   -5.6277 F         1 <0>        -0.1342
     25 H2          1.0039    1.9031    0.0027 H         1 <0>         0.0547
     26 H3         -0.5459    1.8868   -0.8726 H         1 <0>         0.0652
     27 H4         -0.5289    1.8773    0.9072 H         1 <0>         0.0732
     28 H5          0.2319   -0.1594    2.1383 H         1 <0>         0.0759
     29 H6          0.7568   -1.6008    1.2356 H         1 <0>         0.0639
     30 H7          1.7647   -0.1336    1.2338 H         1 <0>         0.0535
     31 H8         -1.9605   -0.1726   -0.8702 H         1 <0>         0.0702
     32 H9         -1.4185   -1.6235    0.0069 H         1 <0>         0.0621
     33 H10        -1.9435   -0.1821    0.9097 H         1 <0>         0.0644
     34 H11        -1.2063   -2.0963   -4.5436 H         1 <0>         0.1579
     35 H12        -1.3092   -3.0729   -6.7521 H         1 <0>         0.1707
     36 H13         4.5499   -2.4636   -6.4532 H         1 <0>         0.1816
     37 H14         6.8580   -0.8625   -3.2399 H         1 <0>         0.1394
     38 H15         4.8389   -0.4586   -1.9365 H         1 <0>         0.1298
     39 H16         2.7180   -0.1274   -0.8141 H         1 <0>         0.4242
@<TRIPOS>BOND
     1    1    2 1
     2    1   25 1
     3    1   26 1
     4    1   27 1
     5    2    3 1
     6    2    4 1
     7    2    5 1
     8    3   28 1
     9    3   29 1
    10    3   30 1
    11    4   31 1
    12    4   32 1
    13    4   33 1
    14    5   23 1
    15    5    6 2
    16    6    7 1
    17    7   22 ar
    18    7    8 ar
    19    8   15 ar
    20    8    9 1
    21    9   10 2
    22    9   34 1
    23   10   11 1
    24   10   35 1
    25   11   12 1
    26   11   13 am
    27   13   14 2
    28   13   15 1
    29   15   16 ar
    30   16   21 ar
    31   16   17 ar
    32   17   18 ar
    33   17   36 1
    34   18   19 ar
    35   18   24 1
    36   19   20 ar
    37   19   37 1
    38   20   21 ar
    39   20   38 1
    40   21   22 ar
    41   22   23 1
    42   23   39 1
@<TRIPOS>MOLECULE
CHEMBL21156__1
   39    42     0     0     0
SMALL
USER_CHARGES

@<TRIPOS>ATOM
      1 C1         -0.0187    1.5258    0.0104 C.3       1 <0>        -0.1436
      2 C2          0.0021   -0.0041    0.0020 C.3       1 <0>         0.0104
      3 C3          0.7421   -0.5109    1.2415 C.3       1 <0>        -0.1486
      4 C4         -1.4333   -0.5336    0.0129 C.3       1 <0>        -0.1311
      5 C5          0.7074   -0.4901   -1.2379 C.2       1 <0>         0.2863
      6 N1          2.0441   -0.4649   -1.4310 N.pl3     1 <0>        -0.5600
      7 H1          2.7093   -0.1360   -0.8062 H         1 <0>         0.4237
      8 C6          2.2878   -0.9936   -2.6819 C.ar      1 <0>        -0.0003
      9 C7          3.4710   -1.2184   -3.4171 C.ar      1 <0>         0.0899
     10 C8          4.7383   -0.8766   -2.8768 C.2       1 <0>        -0.2268
     11 C9          5.8528   -1.0998   -3.5966 C.2       1 <0>         0.1433
     12 N2          5.7998   -1.6503   -4.8436 N.am      1 <0>        -0.6162
     13 H2          6.6243   -1.7966   -5.3332 H         1 <0>         0.4202
     14 C10         4.6271   -1.9956   -5.4097 C.2       1 <0>         0.5434
     15 O1          4.6064   -2.4864   -6.5256 O.2       1 <0>        -0.5290
     16 C11         3.4192   -1.7860   -4.7021 C.ar      1 <0>        -0.1636
     17 C12         2.1276   -2.1497   -5.2864 C.ar      1 <0>         0.0206
     18 C13         2.0421   -2.7164   -6.5617 C.ar      1 <0>        -0.1482
     19 C14         0.8085   -3.0461   -7.0782 C.ar      1 <0>         0.1070
     20 C15        -0.3509   -2.8193   -6.3419 C.ar      1 <0>        -0.1527
     21 C16        -0.2900   -2.2668   -5.0954 C.ar      1 <0>        -0.0598
     22 C17         0.9476   -1.9228   -4.5447 C.ar      1 <0>        -0.0255
     23 C18         1.0426   -1.3268   -3.2078 C.ar      1 <0>         0.1105
     24 N3          0.1194   -1.0028   -2.2821 N.2       1 <0>        -0.4755
     25 F1          0.7230   -3.5938   -8.3102 F         1 <0>        -0.1360
     26 H3          1.0039    1.9031    0.0027 H         1 <0>         0.0552
     27 H4         -0.5459    1.8868   -0.8726 H         1 <0>         0.0658
     28 H5         -0.5289    1.8773    0.9072 H         1 <0>         0.0743
     29 H6          0.2319   -0.1594    2.1383 H         1 <0>         0.0768
     30 H7          0.7568   -1.6008    1.2356 H         1 <0>         0.0643
     31 H8          1.7647   -0.1336    1.2338 H         1 <0>         0.0539
     32 H9         -1.9605   -0.1726   -0.8702 H         1 <0>         0.0709
     33 H10        -1.4185   -1.6235    0.0069 H         1 <0>         0.0626
     34 H11        -1.9435   -0.1821    0.9097 H         1 <0>         0.0650
     35 H12         4.8075   -0.4388   -1.8919 H         1 <0>         0.1430
     36 H13         6.8126   -0.8364   -3.1771 H         1 <0>         0.1691
     37 H14         2.9377   -2.8943   -7.1384 H         1 <0>         0.1771
     38 H15        -1.3100   -3.0834   -6.7622 H         1 <0>         0.1394
     39 H16        -1.1973   -2.0959   -4.5350 H         1 <0>         0.1439
@<TRIPOS>BOND
     1    1    2 1
     2    1   26 1
     3    1   27 1
     4    1   28 1
     5    2    3 1
     6    2    4 1
     7    2    5 1
     8    3   29 1
     9    3   30 1
    10    3   31 1
    11    4   32 1
    12    4   33 1
    13    4   34 1
    14    5   24 2
    15    5    6 1
    16    6    7 1
    17    6    8 1
    18    8   23 ar
    19    8    9 ar
    20    9   16 ar
    21    9   10 1
    22   10   11 2
    23   10   35 1
    24   11   12 1
    25   11   36 1
    26   12   13 1
    27   12   14 am
    28   14   15 2
    29   14   16 1
    30   16   17 ar
    31   17   22 ar
    32   17   18 ar
    33   18   19 ar
    34   18   37 1
    35   19   20 ar
    36   19   25 1
    37   20   21 ar
    38   20   38 1
    39   21   22 ar
    40   21   39 1
    41   22   23 ar
    42   23   24 1
@<TRIPOS>MOLECULE
CHEMBL1092926
   65    70     0     0     0
SMALL
USER_CHARGES

@<TRIPOS>ATOM
      1 C1         -0.0164    1.3580    0.0095 C.ar      1 <0>        -0.0960
      2 C2          1.1640    2.0929    0.0022 C.ar      1 <0>        -0.0689
      3 C3          2.3915    1.4552   -0.0134 C.ar      1 <0>        -0.0273
      4 C4          2.4388    0.0398   -0.0214 C.ar      1 <0>         0.1105
      5 C5          1.2265   -0.6935   -0.0132 C.ar      1 <0>         0.0712
      6 C6          0.0021   -0.0041    0.0020 C.ar      1 <0>        -0.0710
      7 N1          1.2607   -2.0323   -0.0202 N.ar      1 <0>        -0.4118
      8 C7          2.4141   -2.6562   -0.0345 C.ar      1 <0>         0.0816
      9 C8          3.6197   -1.9309   -0.0422 C.ar      1 <0>         0.1844
     10 N2          3.6054   -0.6081   -0.0359 N.ar      1 <0>        -0.4203
     11 C9          4.9135   -2.6532   -0.0579 C.2       1 <0>        -0.1805
     12 C10         6.1943   -2.0717    0.0383 C.2       1 <0>         0.1062
     13 N3          7.0792   -3.0310   -0.0117 N.2       1 <0>        -0.2826
     14 N4          6.4066   -4.2521   -0.1406 N.pl3     1 <0>        -0.3736
     15 C11         5.0832   -4.0049   -0.1622 C.2       1 <0>         0.0784
     16 C12         7.0348   -5.5725   -0.2312 C.3       1 <0>         0.1567
     17 C13         6.2116   -6.4684   -1.1613 C.3       1 <0>        -0.1646
     18 C14         6.8281   -7.8686   -1.1890 C.3       1 <0>        -0.0001
     19 N5          6.8269   -8.4346    0.1653 N.4       1 <0>        -0.5084
     20 C15         7.6728   -7.6203    1.0462 C.3       1 <0>        -0.0020
     21 C16         7.0888   -6.2105    1.1599 C.3       1 <0>        -0.1643
     22 C17         3.6445    2.2453   -0.0221 C.ar      1 <0>         0.0181
     23 C18         4.6614    1.9543    0.8866 C.ar      1 <0>        -0.1249
     24 C19         5.8286    2.6945    0.8745 C.ar      1 <0>         0.1315
     25 C20         5.9891    3.7243   -0.0380 C.ar      1 <0>        -0.1456
     26 C21         4.9817    4.0176   -0.9425 C.ar      1 <0>         0.1534
     27 C22         3.8134    3.2789   -0.9428 C.ar      1 <0>        -0.1497
     28 F1          5.1436    5.0237   -1.8294 F         1 <0>        -0.1211
     29 C23         7.2635    4.5284   -0.0465 C.3       1 <0>         0.0934
     30 N6          8.2325    3.9008   -0.9549 N.3       1 <0>        -0.5299
     31 C24         8.6580    2.5887   -0.4464 C.3       1 <0>         0.0164
     32 C25         9.6188    1.9455   -1.4500 C.3       1 <0>         0.0656
     33 O1         10.7248    2.8241   -1.6738 O.3       1 <0>        -0.3842
     34 C26        10.3466    4.1111   -2.1699 C.3       1 <0>         0.0639
     35 C27         9.3932    4.7761   -1.1736 C.3       1 <0>         0.0172
     36 F2          6.8145    2.4134    1.7544 F         1 <0>        -0.1282
     37 H1         -0.9640    1.8759    0.0259 H         1 <0>         0.1454
     38 H2          1.1220    3.1720    0.0083 H         1 <0>         0.1447
     39 H3         -0.9266   -0.5554    0.0082 H         1 <0>         0.1449
     40 H4          2.4387   -3.7360   -0.0401 H         1 <0>         0.1668
     41 H5          6.4065   -1.0173    0.1359 H         1 <0>         0.1951
     42 H6          4.2981   -4.7415   -0.2489 H         1 <0>         0.1815
     43 H7          8.0462   -5.4688   -0.6242 H         1 <0>         0.1234
     44 H8          5.1868   -6.5291   -0.7951 H         1 <0>         0.1001
     45 H9          6.2150   -6.0492   -2.1675 H         1 <0>         0.1262
     46 H10         6.2445   -8.5090   -1.8505 H         1 <0>         0.1448
     47 H11         7.8527   -7.8068   -1.5556 H         1 <0>         0.1383
     48 H12         5.8835   -8.4461    0.5231 H         1 <0>         0.4298
     49 H13         7.7128   -8.0773    2.0349 H         1 <0>         0.1429
     50 H14         8.6794   -7.5637    0.6319 H         1 <0>         0.1377
     51 H15         7.7192   -5.6069    1.8129 H         1 <0>         0.1241
     52 H16         6.0821   -6.2658    1.5743 H         1 <0>         0.0970
     53 H17         4.5369    1.1521    1.5989 H         1 <0>         0.1411
     54 H18         3.0306    3.5050   -1.6517 H         1 <0>         0.1463
     55 H19         7.0512    5.5422   -0.3859 H         1 <0>         0.0963
     56 H20         7.6787    4.5620    0.9608 H         1 <0>         0.0565
     57 H21         9.1633    2.7158    0.5111 H         1 <0>         0.0476
     58 H22         7.7856    1.9484   -0.3161 H         1 <0>         0.0819
     59 H23         9.9814    0.9982   -1.0510 H         1 <0>         0.0968
     60 H24         9.0978    1.7693   -2.3910 H         1 <0>         0.0583
     61 H25        11.2356    4.7299   -2.2916 H         1 <0>         0.1019
     62 H26         9.8468    3.9978   -3.1319 H         1 <0>         0.0613
     63 H27         9.0574    5.7326   -1.5741 H         1 <0>         0.0907
     64 H28         9.9102    4.9382   -0.2277 H         1 <0>         0.0471
     65 H29         7.1845   -9.3776    0.1349 H         1 <0>         0.4376
@<TRIPOS>BOND
     1    1    6 ar
     2    1    2 ar
     3    1   37 1
     4    2    3 ar
     5    2   38 1
     6    3    4 ar
     7    3   22 1
     8    4   10 ar
     9    4    5 ar
    10    5    6 ar
    11    5    7 ar
    12    6   39 1
    13    7    8 ar
    14    8    9 ar
    15    8   40 1
    16    9   10 ar
    17    9   11 1
    18   11   15 2
    19   11   12 1
    20   12   13 2
    21   12   41 1
    22   13   14 1
    23   14   15 1
    24   14   16 1
    25   15   42 1
    26   16   21 1
    27   16   17 1
    28   16   43 1
    29   17   18 1
    30   17   44 1
    31   17   45 1
    32   18   19 1
    33   18   46 1
    34   18   47 1
    35   19   20 1
    36   19   48 1
    37   19   65 1
    38   20   21 1
    39   20   49 1
    40   20   50 1
    41   21   51 1
    42   21   52 1
    43   22   27 ar
    44   22   23 ar
    45   23   24 ar
    46   23   53 1
    47   24   25 ar
    48   24   36 1
    49   25   26 ar
    50   25   29 1
    51   26   27 ar
    52   26   28 1
    53   27   54 1
    54   29   30 1
    55   29   55 1
    56   29   56 1
    57   30   35 1
    58   30   31 1
    59   31   32 1
    60   31   57 1
    61   31   58 1
    62   32   33 1
    63   32   59 1
    64   32   60 1
    65   33   34 1
    66   34   35 1
    67   34   61 1
    68   34   62 1
    69   35   63 1
    70   35   64 1
@<TRIPOS>MOLECULE
CHEMBL559626
   76    77     0     0     0
SMALL
USER_CHARGES

@<TRIPOS>ATOM
      1 C1          3.1247   -0.0221    1.5362 C.3       1 <0>        -0.1445
      2 C2          2.7822    1.4596    1.3689 C.3       1 <0>        -0.0900
      3 C3          2.0403    1.6605    0.0726 C.2       1 <0>        -0.0722
      4 C4          2.7095    2.0180   -1.0356 C.2       1 <0>        -0.0729
      5 C5          1.9940    2.0815   -2.3604 C.3       1 <0>        -0.0911
      6 C6          2.1864    0.7604   -3.1077 C.3       1 <0>        -0.1446
      7 C7          4.1432    2.3483   -0.9561 C.ar      1 <0>        -0.0425
      8 C8          4.5539    3.5566   -0.3853 C.ar      1 <0>        -0.0603
      9 C9          5.8957    3.8610   -0.3133 C.ar      1 <0>        -0.1320
     10 C10         6.8399    2.9698   -0.8071 C.ar      1 <0>         0.1329
     11 C11         6.4369    1.7682   -1.3749 C.ar      1 <0>        -0.1782
     12 C12         5.0973    1.4521   -1.4459 C.ar      1 <0>        -0.0691
     13 C13         7.4663    0.8060   -1.9092 C.3       1 <0>         0.0450
     14 N1          7.9267    1.2633   -3.2271 N.4       1 <0>        -0.3820
     15 C14         9.0252    0.4035   -3.6875 C.3       1 <0>        -0.0172
     16 C15         9.5874    0.9532   -5.0000 C.3       1 <0>        -0.1884
     17 C16         6.8155    1.1934   -4.1853 C.3       1 <0>        -0.0195
     18 C17         6.3144   -0.2491   -4.2808 C.3       1 <0>        -0.1891
     19 O1          8.1619    3.2747   -0.7346 O.3       1 <0>        -0.5028
     20 C18         0.5809    1.4645    0.0209 C.ar      1 <0>        -0.0427
     21 C19        -0.2660    2.5560   -0.1931 C.ar      1 <0>        -0.0601
     22 C20        -1.6301    2.3678   -0.2406 C.ar      1 <0>        -0.1337
     23 C21        -2.1642    1.0961   -0.0757 C.ar      1 <0>         0.1356
     24 C22        -1.3270    0.0087    0.1372 C.ar      1 <0>        -0.1802
     25 C23         0.0392    0.1861    0.1801 C.ar      1 <0>        -0.0698
     26 C24        -1.9128   -1.3682    0.3158 C.3       1 <0>         0.0439
     27 N2         -2.2573   -1.5742    1.7289 N.4       1 <0>        -0.3819
     28 C25        -3.3676   -0.6856    2.0969 C.3       1 <0>        -0.0152
     29 C26        -4.6232   -1.0904    1.3219 C.3       1 <0>        -0.1735
     30 C27        -2.6593   -2.9719    1.9361 C.3       1 <0>        -0.0174
     31 C28        -2.9168   -3.2131    3.4249 C.3       1 <0>        -0.1872
     32 O2         -3.5100    0.9156   -0.1224 O.3       1 <0>        -0.4964
     33 H1          3.7480   -0.1533    2.4207 H         1 <0>         0.0645
     34 H2          2.2057   -0.5968    1.6508 H         1 <0>         0.0512
     35 H3          3.6646   -0.3718    0.6562 H         1 <0>         0.0548
     36 H4          2.1558    1.7838    2.1999 H         1 <0>         0.0744
     37 H5          3.7010    2.0458    1.3563 H         1 <0>         0.0783
     38 H6          0.9307    2.2517   -2.1912 H         1 <0>         0.0791
     39 H7          2.4026    2.8983   -2.9552 H         1 <0>         0.0744
     40 H8          1.7252    0.8297   -4.0929 H         1 <0>         0.0645
     41 H9          3.2516    0.5575   -3.2187 H         1 <0>         0.0513
     42 H10         1.7196   -0.0473   -2.5440 H         1 <0>         0.0548
     43 H11         3.8205    4.2505   -0.0018 H         1 <0>         0.1399
     44 H12         6.2139    4.7943    0.1274 H         1 <0>         0.1459
     45 H13         4.7850    0.5153   -1.8833 H         1 <0>         0.1360
     46 H14         8.3127    0.7619   -1.2238 H         1 <0>         0.1353
     47 H15         7.0228   -0.1853   -2.0031 H         1 <0>         0.1360
     48 H16         9.8128    0.3855   -2.9341 H         1 <0>         0.1311
     49 H17         8.6522   -0.6081   -3.8474 H         1 <0>         0.1315
     50 H18        10.4025    0.3153   -5.3416 H         1 <0>         0.1079
     51 H19         8.7998    0.9712   -5.7533 H         1 <0>         0.0799
     52 H20         9.9604    1.9649   -4.8400 H         1 <0>         0.0816
     53 H21         6.0040    1.8384   -3.8484 H         1 <0>         0.1264
     54 H22         7.1595    1.5240   -5.1653 H         1 <0>         0.1331
     55 H23         7.1462   -0.9068   -4.5329 H         1 <0>         0.0845
     56 H24         5.8902   -0.5505   -3.3230 H         1 <0>         0.0765
     57 H25         5.5496   -0.3176   -5.0544 H         1 <0>         0.1055
     58 H26         8.5911    2.9737    0.0780 H         1 <0>         0.4073
     59 H27         0.1483    3.5452   -0.3207 H         1 <0>         0.1395
     60 H28        -2.2851    3.2104   -0.4059 H         1 <0>         0.1457
     61 H29         0.6897   -0.6609    0.3408 H         1 <0>         0.1360
     62 H30        -2.8109   -1.4629   -0.2946 H         1 <0>         0.1378
     63 H31        -1.1830   -2.1165    0.0069 H         1 <0>         0.1336
     64 H32        -3.5590   -0.7672    3.1669 H         1 <0>         0.1250
     65 H33        -3.1056    0.3438    1.8521 H         1 <0>         0.1357
     66 H34        -5.4198   -0.3735    1.5208 H         1 <0>         0.1039
     67 H35        -4.4032   -1.1021    0.2544 H         1 <0>         0.0787
     68 H36        -4.9410   -2.0838    1.6384 H         1 <0>         0.0743
     69 H37        -3.5697   -3.1755    1.3723 H         1 <0>         0.1338
     70 H38        -1.8639   -3.6334    1.5931 H         1 <0>         0.1277
     71 H39        -2.0435   -2.9041    3.9994 H         1 <0>         0.0781
     72 H40        -3.7839   -2.6339    3.7422 H         1 <0>         0.0821
     73 H41        -3.1064   -4.2731    3.5938 H         1 <0>         0.1068
     74 H42        -3.8514    0.7300   -1.0079 H         1 <0>         0.4037
     75 H43         8.2517    2.2160   -3.1578 H         1 <0>         0.4288
     76 H44        -1.4550   -1.3662    2.3044 H         1 <0>         0.4201
@<TRIPOS>BOND
     1    1    2 1
     2    1   33 1
     3    1   34 1
     4    1   35 1
     5    2    3 1
     6    2   36 1
     7    2   37 1
     8    3    4 2
     9    3   20 1
    10    4    5 1
    11    4    7 1
    12    5    6 1
    13    5   38 1
    14    5   39 1
    15    6   40 1
    16    6   41 1
    17    6   42 1
    18    7   12 ar
    19    7    8 ar
    20    8    9 ar
    21    8   43 1
    22    9   10 ar
    23    9   44 1
    24   10   11 ar
    25   10   19 1
    26   11   12 ar
    27   11   13 1
    28   12   45 1
    29   13   14 1
    30   13   46 1
    31   13   47 1
    32   14   15 1
    33   14   17 1
    34   14   75 1
    35   15   16 1
    36   15   48 1
    37   15   49 1
    38   16   50 1
    39   16   51 1
    40   16   52 1
    41   17   18 1
    42   17   53 1
    43   17   54 1
    44   18   55 1
    45   18   56 1
    46   18   57 1
    47   19   58 1
    48   20   25 ar
    49   20   21 ar
    50   21   22 ar
    51   21   59 1
    52   22   23 ar
    53   22   60 1
    54   23   24 ar
    55   23   32 1
    56   24   25 ar
    57   24   26 1
    58   25   61 1
    59   26   27 1
    60   26   62 1
    61   26   63 1
    62   27   28 1
    63   27   30 1
    64   27   76 1
    65   28   29 1
    66   28   64 1
    67   28   65 1
    68   29   66 1
    69   29   67 1
    70   29   68 1
    71   30   31 1
    72   30   69 1
    73   30   70 1
    74   31   71 1
    75   31   72 1
    76   31   73 1
    77   32   74 1
@<TRIPOS>MOLECULE
CHEMBL604038
   38    42     0     0     0
SMALL
USER_CHARGES

@<TRIPOS>ATOM
      1 C1         -0.3137    0.9448   -0.1344 C.ar      1 <0>        -0.1417
      2 C2          0.8001    1.7651   -0.0653 C.ar      1 <0>        -0.0821
      3 C3          2.0630    1.2126   -0.0441 C.ar      1 <0>        -0.1471
      4 C4          2.2367   -0.1650   -0.0873 C.ar      1 <0>         0.2231
      5 C5          1.1049   -1.0079   -0.1422 C.ar      1 <0>        -0.0851
      6 C6         -0.1660   -0.4222   -0.1731 C.ar      1 <0>        -0.0587
      7 C7          1.1989   -2.4755   -0.1458 C.ar      1 <0>         0.2901
      8 C8          2.2514   -3.1967   -0.7194 C.ar      1 <0>        -0.1944
      9 C9          3.5694   -2.8224   -1.2190 C.2       1 <0>        -0.1625
     10 C10         4.1556   -3.9442   -1.6562 C.2       1 <0>         0.0718
     11 N1          3.3174   -5.0175   -1.4550 N.pl3     1 <0>        -0.5685
     12 H1          3.5057   -5.9295   -1.7263 H         1 <0>         0.4270
     13 C11         2.1896   -4.6112   -0.8222 C.ar      1 <0>         0.3207
     14 N2          1.1512   -5.2569   -0.2905 N.ar      1 <0>        -0.5200
     15 C12         0.2226   -4.5346    0.3160 C.ar      1 <0>         0.3145
     16 N3          0.2229   -3.2192    0.3925 N.ar      1 <0>        -0.5403
     17 C13         4.0916   -1.4231   -1.2011 C.3       1 <0>         0.2917
     18 N4          3.5018   -0.6987   -0.0925 N.pl3     1 <0>        -0.7659
     19 C14         3.7349   -0.7377   -2.4950 C.ar      1 <0>        -0.1404
     20 C15         2.7616   -1.2762   -3.3160 C.ar      1 <0>        -0.0497
     21 C16         2.4326   -0.6501   -4.5025 C.ar      1 <0>        -0.1576
     22 C17         3.0794    0.5208   -4.8716 C.ar      1 <0>         0.1438
     23 C18         4.0557    1.0607   -4.0480 C.ar      1 <0>        -0.1864
     24 C19         4.3785    0.4336   -2.8574 C.ar      1 <0>         0.1395
     25 F1          5.3251    0.9615   -2.0509 F         1 <0>        -0.1300
     26 O1          2.7569    1.1373   -6.0390 O.3       1 <0>        -0.4948
     27 H2         -1.3020    1.3799   -0.1535 H         1 <0>         0.1272
     28 H3          0.6793    2.8377   -0.0284 H         1 <0>         0.1268
     29 H4          2.9273    1.8583    0.0063 H         1 <0>         0.1264
     30 H5         -1.0418   -1.0517   -0.2277 H         1 <0>         0.1295
     31 H6          5.1385   -3.9986   -2.1005 H         1 <0>         0.1858
     32 H7         -0.5961   -5.0624    0.7825 H         1 <0>         0.1963
     33 H8          5.1755   -1.4414   -1.0872 H         1 <0>         0.1066
     34 H9          4.0413   -0.5822    0.7051 H         1 <0>         0.3978
     35 H10         2.2581   -2.1877   -3.0294 H         1 <0>         0.1333
     36 H11         1.6723   -1.0721   -5.1431 H         1 <0>         0.1342
     37 H12         4.5606    1.9718   -4.3335 H         1 <0>         0.1425
     38 H13         2.0470    1.7888   -5.9566 H         1 <0>         0.3970
@<TRIPOS>BOND
     1    1    6 ar
     2    1    2 ar
     3    1   27 1
     4    2    3 ar
     5    2   28 1
     6    3    4 ar
     7    3   29 1
     8    4   18 1
     9    4    5 ar
    10    5    6 ar
    11    5    7 1
    12    6   30 1
    13    7   16 ar
    14    7    8 ar
    15    8   13 ar
    16    8    9 1
    17    9   10 2
    18    9   17 1
    19   10   11 1
    20   10   31 1
    21   11   12 1
    22   11   13 1
    23   13   14 ar
    24   14   15 ar
    25   15   16 ar
    26   15   32 1
    27   17   18 1
    28   17   19 1
    29   17   33 1
    30   18   34 1
    31   19   24 ar
    32   19   20 ar
    33   20   21 ar
    34   20   35 1
    35   21   22 ar
    36   21   36 1
    37   22   23 ar
    38   22   26 1
    39   23   24 ar
    40   23   37 1
    41   24   25 1
    42   26   38 1
@<TRIPOS>MOLECULE
CHEMBL604038__1
   38    42     0     0     0
SMALL
USER_CHARGES

@<TRIPOS>ATOM
      1 C1          0.1855    1.6194   -0.0666 C.ar      1 <0>        -0.1409
      2 C2          1.4109    2.2636   -0.0286 C.ar      1 <0>        -0.0809
      3 C3          2.5765    1.5277   -0.0098 C.ar      1 <0>        -0.1465
      4 C4          2.5404    0.1391   -0.0326 C.ar      1 <0>         0.2224
      5 C5          1.2948   -0.5241   -0.0870 C.ar      1 <0>        -0.0861
      6 C6          0.1257    0.2455   -0.0948 C.ar      1 <0>        -0.0586
      7 C7          1.1692   -1.9875   -0.1586 C.ar      1 <0>         0.2913
      8 C8          2.0644   -2.8855    0.4322 C.ar      1 <0>        -0.1951
      9 C9          3.3892   -2.7387    1.0240 C.2       1 <0>        -0.1618
     10 C10         3.7734   -3.9552    1.4310 C.2       1 <0>         0.0706
     11 N1          2.7993   -4.8787    1.1250 N.pl3     1 <0>        -0.5689
     12 H1          2.8325   -5.8202    1.3560 H         1 <0>         0.4268
     13 C11         1.7867   -4.2775    0.4537 C.ar      1 <0>         0.3209
     14 N2          0.6996   -4.7333   -0.1694 N.ar      1 <0>        -0.5206
     15 C12        -0.0711   -3.8514   -0.7862 C.ar      1 <0>         0.3149
     16 N3          0.1295   -2.5492   -0.7903 N.ar      1 <0>        -0.5404
     17 C13         4.1137   -1.4354    1.1119 C.3       1 <0>         0.2917
     18 N4          3.7093   -0.5800    0.0137 N.pl3     1 <0>        -0.7658
     19 C14         3.7818   -0.7639    2.4196 C.ar      1 <0>        -0.1402
     20 C15         2.6895   -1.1858    3.1546 C.ar      1 <0>        -0.0499
     21 C16         2.3829   -0.5721    4.3536 C.ar      1 <0>        -0.1576
     22 C17         3.1718    0.4693    4.8215 C.ar      1 <0>         0.1438
     23 C18         4.2674    0.8923    4.0841 C.ar      1 <0>        -0.1864
     24 C19         4.5746    0.2712    2.8862 C.ar      1 <0>         0.1390
     25 F1          5.6450    0.6781    2.1694 F         1 <0>        -0.1301
     26 O1          2.8709    1.0740    6.0007 O.3       1 <0>        -0.4942
     27 H2         -0.7266    2.1978   -0.0696 H         1 <0>         0.1275
     28 H3          1.4534    3.3427   -0.0140 H         1 <0>         0.1271
     29 H4          3.5285    2.0365    0.0227 H         1 <0>         0.1263
     30 H5         -0.8357   -0.2457   -0.1233 H         1 <0>         0.1295
     31 H6          4.7075   -4.1785    1.9250 H         1 <0>         0.1854
     32 H7         -0.9276   -4.2271   -1.3262 H         1 <0>         0.1963
     33 H8          5.1878   -1.6127    1.0576 H         1 <0>         0.1063
     34 H9          4.3092   -0.5106   -0.7454 H         1 <0>         0.3978
     35 H10         2.0749   -1.9959    2.7908 H         1 <0>         0.1334
     36 H11         1.5292   -0.9024    4.9266 H         1 <0>         0.1342
     37 H12         4.8825    1.7027    4.4462 H         1 <0>         0.1424
     38 H13         3.2951    0.6694    6.7697 H         1 <0>         0.3964
@<TRIPOS>BOND
     1    1    6 ar
     2    1    2 ar
     3    1   27 1
     4    2    3 ar
     5    2   28 1
     6    3    4 ar
     7    3   29 1
     8    4   18 1
     9    4    5 ar
    10    5    6 ar
    11    5    7 1
    12    6   30 1
    13    7   16 ar
    14    7    8 ar
    15    8   13 ar
    16    8    9 1
    17    9   10 2
    18    9   17 1
    19   10   11 1
    20   10   31 1
    21   11   12 1
    22   11   13 1
    23   13   14 ar
    24   14   15 ar
    25   15   16 ar
    26   15   32 1
    27   17   18 1
    28   17   19 1
    29   17   33 1
    30   18   34 1
    31   19   24 ar
    32   19   20 ar
    33   20   21 ar
    34   20   35 1
    35   21   22 ar
    36   21   36 1
    37   22   23 ar
    38   22   26 1
    39   23   24 ar
    40   23   37 1
    41   24   25 1
    42   26   38 1
@<TRIPOS>MOLECULE
CHEMBL1078889
   57    60     0     0     0
SMALL
USER_CHARGES

@<TRIPOS>ATOM
      1 C1          0.9017    1.8776   -0.2927 C.3       1 <0>        -0.6374
      2 S1          0.9407    0.0653   -0.2267 S.o2      1 <0>         2.5275
      3 O1          2.2577   -0.3859    0.0583 O.2       1 <0>        -1.0257
      4 O2         -0.1684   -0.4214    0.5165 O.2       1 <0>        -1.0258
      5 N1          0.6540   -0.4236   -1.7827 N.2       1 <0>        -1.0895
      6 C2          0.6157   -1.7825   -2.0904 C.ar      1 <0>         0.3122
      7 C3          0.8129   -2.7271   -1.0887 C.ar      1 <0>        -0.2707
      8 C4          0.7756   -4.0708   -1.3906 C.ar      1 <0>        -0.0053
      9 C5          0.5398   -4.4837   -2.7021 C.ar      1 <0>        -0.1957
     10 C6          0.3423   -3.5345   -3.7051 C.ar      1 <0>        -0.0376
     11 C7          0.3748   -2.1919   -3.3976 C.ar      1 <0>        -0.1934
     12 C8          0.4996   -5.9282   -3.0293 C.ar      1 <0>         0.3024
     13 C9          0.2697   -6.3529   -4.3418 C.ar      1 <0>        -0.2879
     14 C10         0.2410   -7.7112   -4.5990 C.ar      1 <0>         0.1806
     15 N2          0.4304   -8.5633   -3.6035 N.ar      1 <0>        -0.5812
     16 C11         0.6463   -8.1332   -2.3689 C.ar      1 <0>         0.5587
     17 N3          0.6873   -6.8421   -2.0793 N.ar      1 <0>        -0.5718
     18 N4          0.8398   -9.0584   -1.3560 N.pl3     1 <0>        -0.6482
     19 C12         0.9216  -10.4206   -1.6599 C.ar      1 <0>         0.1859
     20 C13         1.5958  -10.8403   -2.7995 C.ar      1 <0>        -0.1099
     21 C14         1.6747  -12.1867   -3.0967 C.ar      1 <0>        -0.0966
     22 C15         1.0832  -13.1166   -2.2615 C.ar      1 <0>        -0.1126
     23 C16         0.4112  -12.7021   -1.1261 C.ar      1 <0>        -0.0749
     24 C17         0.3339  -11.3577   -0.8198 C.ar      1 <0>        -0.1516
     25 C18         1.1705  -14.5849   -2.5895 C.3       1 <0>         0.1055
     26 N5          2.3732  -15.1548   -1.9678 N.3       1 <0>        -0.5526
     27 C19         3.5873  -14.5577   -2.5289 C.3       1 <0>         0.0535
     28 C20         4.7755  -14.8212   -1.5978 C.3       1 <0>        -0.5919
     29 S2          5.0344  -16.6179   -1.4845 S.o2      1 <0>         2.4082
     30 O3          5.9013  -16.8824   -0.3902 O.2       1 <0>        -0.9432
     31 O4          5.3751  -17.1085   -2.7739 O.2       1 <0>        -0.9406
     32 C21         3.3667  -17.2053   -1.0581 C.3       1 <0>        -0.5951
     33 C22         2.3708  -16.6164   -2.0628 C.3       1 <0>         0.0638
     34 H1          1.6733    2.2330   -0.9757 H         1 <0>         0.1162
     35 H2         -0.0756    2.2074   -0.6454 H         1 <0>         0.1162
     36 H3          1.0839    2.2815    0.7032 H         1 <0>         0.1030
     37 H4          0.9958   -2.4069   -0.0736 H         1 <0>         0.1061
     38 H5          0.9291   -4.8040   -0.6126 H         1 <0>         0.1150
     39 H6          0.1596   -3.8519   -4.7212 H         1 <0>         0.1122
     40 H7          0.2176   -1.4567   -4.1730 H         1 <0>         0.1177
     41 H8          0.1178   -5.6367   -5.1357 H         1 <0>         0.1434
     42 H9          0.0655   -8.0732   -5.6013 H         1 <0>         0.1619
     43 H10         0.9184   -8.7611   -0.4361 H         1 <0>         0.4218
     44 H11         2.0574  -10.1145   -3.4526 H         1 <0>         0.1294
     45 H12         2.1987  -12.5137   -3.9827 H         1 <0>         0.1202
     46 H13        -0.0497  -13.4309   -0.4759 H         1 <0>         0.1239
     47 H14        -0.1869  -11.0350    0.0697 H         1 <0>         0.1240
     48 H15         0.2869  -15.0958   -2.2071 H         1 <0>         0.0894
     49 H16         1.2249  -14.7130   -3.6706 H         1 <0>         0.0505
     50 H17         3.7886  -14.9969   -3.5060 H         1 <0>         0.0590
     51 H18         3.4447  -13.4827   -2.6388 H         1 <0>         0.1101
     52 H19         5.6698  -14.3472   -2.0024 H         1 <0>         0.1386
     53 H20         4.5608  -14.4191   -0.6076 H         1 <0>         0.1429
     54 H21         3.3378  -18.2937   -1.1090 H         1 <0>         0.1376
     55 H22         3.1090  -16.8762   -0.0514 H         1 <0>         0.1428
     56 H23         1.3712  -16.9919   -1.8444 H         1 <0>         0.1000
     57 H24         2.6557  -16.9142   -3.0720 H         1 <0>         0.0594
@<TRIPOS>BOND
     1    1    2 1
     2    1   34 1
     3    1   35 1
     4    1   36 1
     5    2    3 2
     6    2    4 2
     7    2    5 1
     8    5    6 1
     9    6   11 ar
    10    6    7 ar
    11    7    8 ar
    12    7   37 1
    13    8    9 ar
    14    8   38 1
    15    9   10 ar
    16    9   12 1
    17   10   11 ar
    18   10   39 1
    19   11   40 1
    20   12   17 ar
    21   12   13 ar
    22   13   14 ar
    23   13   41 1
    24   14   15 ar
    25   14   42 1
    26   15   16 ar
    27   16   17 ar
    28   16   18 1
    29   18   19 1
    30   18   43 1
    31   19   24 ar
    32   19   20 ar
    33   20   21 ar
    34   20   44 1
    35   21   22 ar
    36   21   45 1
    37   22   23 ar
    38   22   25 1
    39   23   24 ar
    40   23   46 1
    41   24   47 1
    42   25   26 1
    43   25   48 1
    44   25   49 1
    45   26   33 1
    46   26   27 1
    47   27   28 1
    48   27   50 1
    49   27   51 1
    50   28   29 1
    51   28   52 1
    52   28   53 1
    53   29   30 2
    54   29   31 2
    55   29   32 1
    56   32   33 1
    57   32   54 1
    58   32   55 1
    59   33   56 1
    60   33   57 1
@<TRIPOS>MOLECULE
CHEMBL1078889__1
   58    61     0     0     0
SMALL
USER_CHARGES

@<TRIPOS>ATOM
      1 C1          0.9017    1.8776   -0.2927 C.3       1 <0>        -0.6368
      2 S1          0.9407    0.0653   -0.2267 S.o2      1 <0>         2.5295
      3 O1          2.2577   -0.3859    0.0583 O.2       1 <0>        -1.0248
      4 O2         -0.1684   -0.4214    0.5165 O.2       1 <0>        -1.0245
      5 N1          0.6540   -0.4236   -1.7827 N.2       1 <0>        -1.0850
      6 C2          0.6157   -1.7825   -2.0904 C.ar      1 <0>         0.3177
      7 C3          0.8129   -2.7271   -1.0887 C.ar      1 <0>        -0.2708
      8 C4          0.7756   -4.0708   -1.3906 C.ar      1 <0>        -0.0028
      9 C5          0.5398   -4.4837   -2.7021 C.ar      1 <0>        -0.2058
     10 C6          0.3423   -3.5345   -3.7051 C.ar      1 <0>        -0.0352
     11 C7          0.3748   -2.1919   -3.3976 C.ar      1 <0>        -0.1913
     12 C8          0.4996   -5.9282   -3.0293 C.ar      1 <0>         0.3079
     13 C9          0.2697   -6.3529   -4.3418 C.ar      1 <0>        -0.2764
     14 C10         0.2410   -7.7112   -4.5990 C.ar      1 <0>         0.1788
     15 N2          0.4304   -8.5633   -3.6035 N.ar      1 <0>        -0.5888
     16 C11         0.6463   -8.1332   -2.3689 C.ar      1 <0>         0.5480
     17 N3          0.6873   -6.8421   -2.0793 N.ar      1 <0>        -0.5663
     18 N4          0.8398   -9.0584   -1.3560 N.pl3     1 <0>        -0.6477
     19 C12         0.9216  -10.4206   -1.6599 C.ar      1 <0>         0.2337
     20 C13         1.5958  -10.8403   -2.7995 C.ar      1 <0>        -0.1121
     21 C14         1.6747  -12.1867   -3.0967 C.ar      1 <0>        -0.0767
     22 C15         1.0832  -13.1166   -2.2615 C.ar      1 <0>        -0.2053
     23 C16         0.4112  -12.7021   -1.1261 C.ar      1 <0>        -0.0645
     24 C17         0.3339  -11.3577   -0.8198 C.ar      1 <0>        -0.1543
     25 C18         1.1705  -14.5849   -2.5895 C.3       1 <0>         0.0502
     26 N5          2.3732  -15.1548   -1.9678 N.4       1 <0>        -0.3953
     27 C19         3.5595  -14.5199   -2.5456 C.3       1 <0>        -0.0133
     28 C20         4.7886  -14.8287   -1.6839 C.3       1 <0>        -0.6402
     29 S2          5.0699  -16.6259   -1.7041 S.o2      1 <0>         2.4141
     30 O3          5.9733  -16.9549   -0.6577 O.2       1 <0>        -0.8972
     31 O4          5.3749  -17.0219   -3.0343 O.2       1 <0>        -0.9016
     32 C21         3.4215  -17.2602   -1.2684 C.3       1 <0>        -0.6452
     33 C22         2.3888  -16.6021   -2.1897 C.3       1 <0>        -0.0008
     34 H1          1.6733    2.2330   -0.9757 H         1 <0>         0.1175
     35 H2         -0.0756    2.2074   -0.6454 H         1 <0>         0.1176
     36 H3          1.0839    2.2815    0.7032 H         1 <0>         0.1052
     37 H4          0.9958   -2.4069   -0.0736 H         1 <0>         0.1078
     38 H5          0.9291   -4.8040   -0.6126 H         1 <0>         0.1139
     39 H6          0.1596   -3.8519   -4.7212 H         1 <0>         0.1126
     40 H7          0.2176   -1.4567   -4.1730 H         1 <0>         0.1204
     41 H8          0.1178   -5.6367   -5.1357 H         1 <0>         0.1480
     42 H9          0.0655   -8.0732   -5.6013 H         1 <0>         0.1652
     43 H10         0.9184   -8.7611   -0.4361 H         1 <0>         0.4275
     44 H11         2.0574  -10.1145   -3.4526 H         1 <0>         0.1429
     45 H12         2.1987  -12.5137   -3.9827 H         1 <0>         0.1325
     46 H13        -0.0497  -13.4309   -0.4759 H         1 <0>         0.1316
     47 H14        -0.1869  -11.0350    0.0697 H         1 <0>         0.1371
     48 H15         0.2869  -15.0958   -2.2071 H         1 <0>         0.1414
     49 H16         1.2249  -14.7130   -3.6706 H         1 <0>         0.1404
     50 H17         3.7193  -14.9013   -3.5541 H         1 <0>         0.1514
     51 H18         3.4086  -13.4412   -2.5876 H         1 <0>         0.1615
     52 H19         5.6601  -14.3169   -2.0921 H         1 <0>         0.1816
     53 H20         4.6113  -14.4972   -0.6608 H         1 <0>         0.1571
     54 H21         3.3974  -18.3414   -1.4044 H         1 <0>         0.1808
     55 H22         3.1966  -17.0134   -0.2308 H         1 <0>         0.1570
     56 H23         1.4012  -17.0116   -1.9774 H         1 <0>         0.1560
     57 H24         2.6483  -16.8063   -3.2285 H         1 <0>         0.1510
     58 H25         2.3510  -14.9723   -0.9757 H         1 <0>         0.4248
@<TRIPOS>BOND
     1    1    2 1
     2    1   34 1
     3    1   35 1
     4    1   36 1
     5    2    3 2
     6    2    4 2
     7    2    5 1
     8    5    6 1
     9    6   11 ar
    10    6    7 ar
    11    7    8 ar
    12    7   37 1
    13    8    9 ar
    14    8   38 1
    15    9   10 ar
    16    9   12 1
    17   10   11 ar
    18   10   39 1
    19   11   40 1
    20   12   17 ar
    21   12   13 ar
    22   13   14 ar
    23   13   41 1
    24   14   15 ar
    25   14   42 1
    26   15   16 ar
    27   16   17 ar
    28   16   18 1
    29   18   19 1
    30   18   43 1
    31   19   24 ar
    32   19   20 ar
    33   20   21 ar
    34   20   44 1
    35   21   22 ar
    36   21   45 1
    37   22   23 ar
    38   22   25 1
    39   23   24 ar
    40   23   46 1
    41   24   47 1
    42   25   26 1
    43   25   48 1
    44   25   49 1
    45   26   33 1
    46   26   27 1
    47   26   58 1
    48   27   28 1
    49   27   50 1
    50   27   51 1
    51   28   29 1
    52   28   52 1
    53   28   53 1
    54   29   30 2
    55   29   31 2
    56   29   32 1
    57   32   33 1
    58   32   54 1
    59   32   55 1
    60   33   56 1
    61   33   57 1
@<TRIPOS>MOLECULE
CHEMBL578194
   44    47     0     0     0
SMALL
USER_CHARGES

@<TRIPOS>ATOM
      1 C1         -0.0274    1.5140   -0.0027 C.3       1 <0>        -0.1637
      2 C2          0.0010   -0.0158    0.0005 C.3       1 <0>         0.2013
      3 H1         -1.0196   -0.3981    0.0112 H         1 <0>         0.1145
      4 C3          0.7088   -0.5076   -1.2356 C.ar      1 <0>         0.1056
      5 C4          0.0034   -0.6467   -2.4163 C.ar      1 <0>        -0.1290
      6 C5          0.6626   -1.0997   -3.5481 C.ar      1 <0>        -0.1016
      7 C6          2.0154   -1.3979   -3.4497 C.ar      1 <0>         0.0515
      8 C7          2.6545   -1.2336   -2.2329 C.ar      1 <0>         0.0854
      9 N1          1.9944   -0.7949   -1.1790 N.ar      1 <0>        -0.4557
     10 F1          2.6984   -1.8429   -4.5271 F         1 <0>        -0.1256
     11 N2          0.7121   -0.4885    1.1910 N.pl3     1 <0>        -0.6865
     12 C8          0.0358   -0.6307    2.3899 C.ar      1 <0>         0.4550
     13 C9          0.7169   -1.0786    3.5352 C.ar      1 <0>         0.0115
     14 N3          0.0601   -1.2135    4.6865 N.ar      1 <0>        -0.3280
     15 C10        -1.2226   -0.9282    4.7512 C.ar      1 <0>        -0.0362
     16 C11        -1.9026   -0.4828    3.6149 C.ar      1 <0>         0.4336
     17 N4         -1.2564   -0.3397    2.4639 N.ar      1 <0>        -0.5420
     18 N5         -3.2538   -0.1847    3.6906 N.pl3     1 <0>        -0.6021
     19 C12        -3.9108    0.3723    2.5867 C.2       1 <0>         0.3081
     20 C13        -3.3537    0.5826    1.3148 C.2       1 <0>        -0.2634
     21 C14        -4.3063    1.1371    0.5312 C.2       1 <0>         0.1275
     22 N6         -5.4250    1.2746    1.2736 N.pl3     1 <0>        -0.4665
     23 H2         -6.2685    1.6448    0.9698 H         1 <0>         0.4388
     24 N7         -5.1567    0.7840    2.5579 N.2       1 <0>        -0.3187
     25 C15        -4.1469    1.5316   -0.9145 C.3       1 <0>        -0.0980
     26 C16        -4.9193    2.7594   -1.4011 C.3       1 <0>        -0.1702
     27 C17        -5.3592    1.3588   -1.8317 C.3       1 <0>        -0.1705
     28 C18         2.1129   -1.3895    3.4645 C.1       1 <0>         0.2726
     29 N8          3.2204   -1.6361    3.4084 N.1       1 <0>        -0.3964
     30 H3          0.9933    1.8963   -0.0134 H         1 <0>         0.0647
     31 H4         -0.5564    1.8657   -0.8884 H         1 <0>         0.0727
     32 H5         -0.5393    1.8697    0.8914 H         1 <0>         0.0773
     33 H6         -1.0486   -0.4056   -2.4562 H         1 <0>         0.1502
     34 H7          0.1368   -1.2183   -4.4840 H         1 <0>         0.1529
     35 H8          3.7063   -1.4630   -2.1469 H         1 <0>         0.1722
     36 H9          1.6569   -0.7017    1.1389 H         1 <0>         0.4259
     37 H10        -1.7519   -1.0391    5.6860 H         1 <0>         0.1795
     38 H11        -3.7445   -0.3619    4.5084 H         1 <0>         0.4326
     39 H12        -2.3437    0.3442    1.0157 H         1 <0>         0.1836
     40 H13        -3.1611    1.3538   -1.3444 H         1 <0>         0.1314
     41 H14        -5.5427    3.2819   -0.6755 H         1 <0>         0.0951
     42 H15        -4.4416    3.3898   -2.1511 H         1 <0>         0.1077
     43 H16        -5.1710    1.0676   -2.8651 H         1 <0>         0.1076
     44 H17        -6.2721    0.9598   -1.3895 H         1 <0>         0.0953
@<TRIPOS>BOND
     1    1    2 1
     2    1   30 1
     3    1   31 1
     4    1   32 1
     5    2    3 1
     6    2    4 1
     7    2   11 1
     8    4    9 ar
     9    4    5 ar
    10    5    6 ar
    11    5   33 1
    12    6    7 ar
    13    6   34 1
    14    7    8 ar
    15    7   10 1
    16    8    9 ar
    17    8   35 1
    18   11   12 1
    19   11   36 1
    20   12   17 ar
    21   12   13 ar
    22   13   14 ar
    23   13   28 1
    24   14   15 ar
    25   15   16 ar
    26   15   37 1
    27   16   17 ar
    28   16   18 1
    29   18   19 1
    30   18   38 1
    31   19   24 2
    32   19   20 1
    33   20   21 2
    34   20   39 1
    35   21   22 1
    36   21   25 1
    37   22   23 1
    38   22   24 1
    39   25   27 1
    40   25   26 1
    41   25   40 1
    42   26   27 1
    43   26   41 1
    44   26   42 1
    45   27   43 1
    46   27   44 1
    47   28   29 3
@<TRIPOS>MOLECULE
CHEMBL578194__1
   44    47     0     0     0
SMALL
USER_CHARGES

@<TRIPOS>ATOM
      1 C1         -0.0183    1.5308    0.0169 C.3       1 <0>        -0.1659
      2 C2          0.0031    0.0011   -0.0025 C.3       1 <0>         0.2035
      3 H1          0.5295   -0.3661    0.8785 H         1 <0>         0.1033
      4 C3         -1.4106   -0.5211    0.0030 C.ar      1 <0>         0.1024
      5 C4         -2.0789   -0.6691    1.2039 C.ar      1 <0>        -0.1267
      6 C5         -3.3787   -1.1501    1.1993 C.ar      1 <0>        -0.1004
      7 C6         -3.9616   -1.4663   -0.0209 C.ar      1 <0>         0.0547
      8 C7         -3.2294   -1.2915   -1.1825 C.ar      1 <0>         0.0850
      9 N1         -1.9964   -0.8261   -1.1382 N.ar      1 <0>        -0.4555
     10 F1         -5.2262   -1.9387   -0.0734 F         1 <0>        -0.1242
     11 N2          0.6902   -0.4624   -1.2105 N.pl3     1 <0>        -0.6836
     12 C8          2.0693   -0.5752   -1.2218 C.ar      1 <0>         0.4627
     13 C9          2.7318   -1.0142   -2.3815 C.ar      1 <0>         0.0213
     14 N3          4.0597   -1.1207   -2.3860 N.ar      1 <0>        -0.3233
     15 C10         4.7493   -0.8158   -1.3078 C.ar      1 <0>        -0.0318
     16 C11         4.0943   -0.3796   -0.1536 C.ar      1 <0>         0.4190
     17 N4          2.7716   -0.2642   -0.1402 N.ar      1 <0>        -0.5770
     18 N5          4.8275   -0.0606    0.9786 N.pl3     1 <0>        -0.6109
     19 C12         4.1893    0.4811    2.0918 C.2       1 <0>         0.3251
     20 C13         4.7930    0.9347    3.2251 C.2       1 <0>        -0.2960
     21 C14         3.7945    1.3944    4.0878 C.2       1 <0>         0.1279
     22 N6          2.6350    1.2279    3.5051 N.2       1 <0>        -0.2858
     23 H2          2.1674    0.4315    1.5944 H         1 <0>         0.4455
     24 N7          2.8514    0.6591    2.2434 N.pl3     1 <0>        -0.4674
     25 C15         4.0158    1.9819    5.4578 C.3       1 <0>        -0.0845
     26 C16         5.3765    1.7459    6.1164 C.3       1 <0>        -0.1642
     27 C17         4.1388    1.0090    6.6322 C.3       1 <0>        -0.1637
     28 C18         1.9810   -1.3465   -3.5547 C.1       1 <0>         0.2691
     29 N8          1.3854   -1.6102   -4.4855 N.1       1 <0>        -0.3870
     30 H3          1.0042    1.9086    0.0129 H         1 <0>         0.0711
     31 H4         -0.5447    1.8981   -0.8641 H         1 <0>         0.0702
     32 H5         -0.5295    1.8757    0.9156 H         1 <0>         0.0786
     33 H6         -1.5940   -0.4134    2.1344 H         1 <0>         0.1517
     34 H7         -3.9249   -1.2762    2.1224 H         1 <0>         0.1548
     35 H8         -3.6745   -1.5347   -2.1360 H         1 <0>         0.1736
     36 H9          0.1784   -0.6902   -2.0024 H         1 <0>         0.4289
     37 H10         5.8258   -0.9033   -1.3150 H         1 <0>         0.1839
     38 H11         5.7850   -0.2146    0.9957 H         1 <0>         0.4446
     39 H12         5.8548    0.9380    3.4223 H         1 <0>         0.1518
     40 H13         3.5247    2.9369    5.6447 H         1 <0>         0.1216
     41 H14         6.1116    1.1657    5.5587 H         1 <0>         0.0996
     42 H15         5.7809    2.5457    6.7366 H         1 <0>         0.1017
     43 H16         3.7290    1.3240    7.5918 H         1 <0>         0.1008
     44 H17         4.0597   -0.0560    6.4139 H         1 <0>         0.0957
@<TRIPOS>BOND
     1    1    2 1
     2    1   30 1
     3    1   31 1
     4    1   32 1
     5    2    3 1
     6    2    4 1
     7    2   11 1
     8    4    9 ar
     9    4    5 ar
    10    5    6 ar
    11    5   33 1
    12    6    7 ar
    13    6   34 1
    14    7    8 ar
    15    7   10 1
    16    8    9 ar
    17    8   35 1
    18   11   12 1
    19   11   36 1
    20   12   17 ar
    21   12   13 ar
    22   13   14 ar
    23   13   28 1
    24   14   15 ar
    25   15   16 ar
    26   15   37 1
    27   16   17 ar
    28   16   18 1
    29   18   19 1
    30   18   38 1
    31   19   20 2
    32   19   24 1
    33   20   39 1
    34   20   21 1
    35   21   25 1
    36   21   22 2
    37   22   24 1
    38   23   24 1
    39   25   27 1
    40   25   26 1
    41   25   40 1
    42   26   27 1
    43   26   41 1
    44   26   42 1
    45   27   43 1
    46   27   44 1
    47   28   29 3
@<TRIPOS>MOLECULE
CHEMBL571118
   42    45     0     0     0
SMALL
USER_CHARGES

@<TRIPOS>ATOM
      1 C1          0.0080    1.4087    0.0546 C.3       1 <0>         0.0322
      2 O1          0.0228   -0.0202    0.0442 O.3       1 <0>        -0.3505
      3 C2         -1.1668   -0.6420    0.0438 C.2       1 <0>         0.4728
      4 O2         -2.1869    0.0055    0.0521 O.2       1 <0>        -0.4967
      5 C3         -1.2300   -2.1476    0.0332 C.3       1 <0>        -0.1011
      6 C4         -0.7113   -2.7165   -1.3139 C.3       1 <0>        -0.1167
      7 C5         -1.4492   -4.0673   -1.4257 C.3       1 <0>         0.1170
      8 N1         -2.6457   -3.9827   -0.5756 N.pl3     1 <0>        -0.6081
      9 C6         -2.6982   -2.6417    0.0347 C.3       1 <0>         0.1361
     10 C7         -3.5720   -4.9959   -0.3809 C.ar      1 <0>         0.4605
     11 C8         -3.3607   -6.2587   -0.9248 C.ar      1 <0>        -0.2851
     12 C9         -4.3242   -7.2446   -0.6988 C.ar      1 <0>         0.3042
     13 N2         -5.4045   -6.9385    0.0263 N.ar      1 <0>        -0.5805
     14 C10        -5.5635   -5.7296    0.5220 C.ar      1 <0>         0.3475
     15 N3         -4.6739   -4.7754    0.3343 N.ar      1 <0>        -0.5897
     16 C11        -4.1524   -8.6019   -1.2522 C.2       1 <0>        -0.2532
     17 C12        -4.9875   -9.7111   -1.0215 C.2       1 <0>         0.4265
     18 N4         -4.5104  -10.7411   -1.6851 N.2       1 <0>        -0.3722
     19 N5         -3.3543  -10.3535   -2.3715 N.pl3     1 <0>        -0.2936
     20 C13        -3.1294   -9.0283   -2.1122 C.2       1 <0>         0.3168
     21 N6         -2.0830   -8.3960   -2.6503 N.2       1 <0>        -0.4745
     22 C14        -1.2475   -9.0295   -3.4428 C.2       1 <0>         0.1941
     23 C15        -1.4452  -10.3846   -3.7348 C.2       1 <0>        -0.2380
     24 C16        -2.5018  -11.0369   -3.1869 C.2       1 <0>         0.1833
     25 N7         -6.1296   -9.7170   -0.2221 N.pl3     1 <0>        -0.8151
     26 H1          1.0318    1.7827    0.0537 H         1 <0>         0.1046
     27 H2         -0.5127    1.7731   -0.8310 H         1 <0>         0.0621
     28 H3         -0.5065    1.7602    0.9489 H         1 <0>         0.0624
     29 H4         -0.6762   -2.5658    0.8737 H         1 <0>         0.1249
     30 H5         -0.9826   -2.0593   -2.1401 H         1 <0>         0.0845
     31 H6          0.3675   -2.8682   -1.2786 H         1 <0>         0.1011
     32 H7         -1.7416   -4.2454   -2.4606 H         1 <0>         0.0752
     33 H8         -0.8029   -4.8727   -1.0770 H         1 <0>         0.0758
     34 H9         -3.0765   -2.7038    1.0551 H         1 <0>         0.0889
     35 H10        -3.3227   -1.9773   -0.5625 H         1 <0>         0.0817
     36 H11        -2.4758   -6.4710   -1.5064 H         1 <0>         0.1547
     37 H12        -6.4478   -5.5141    1.1034 H         1 <0>         0.1951
     38 H13        -0.4065   -8.5035   -3.8700 H         1 <0>         0.1840
     39 H14        -0.7601  -10.9073   -4.3857 H         1 <0>         0.1716
     40 H15        -2.6709  -12.0816   -3.4023 H         1 <0>         0.1838
     41 H16        -6.4493   -8.8909    0.1730 H         1 <0>         0.4290
     42 H17        -6.6045  -10.5473   -0.0610 H         1 <0>         0.4049
@<TRIPOS>BOND
     1    1    2 1
     2    1   26 1
     3    1   27 1
     4    1   28 1
     5    2    3 1
     6    3    4 2
     7    3    5 1
     8    5    9 1
     9    5    6 1
    10    5   29 1
    11    6    7 1
    12    6   30 1
    13    6   31 1
    14    7    8 1
    15    7   32 1
    16    7   33 1
    17    8    9 1
    18    8   10 1
    19    9   34 1
    20    9   35 1
    21   10   15 ar
    22   10   11 ar
    23   11   12 ar
    24   11   36 1
    25   12   13 ar
    26   12   16 1
    27   13   14 ar
    28   14   15 ar
    29   14   37 1
    30   16   20 2
    31   16   17 1
    32   17   18 2
    33   17   25 1
    34   18   19 1
    35   19   24 1
    36   19   20 1
    37   20   21 1
    38   21   22 2
    39   22   23 1
    40   22   38 1
    41   23   24 2
    42   23   39 1
    43   24   40 1
    44   25   41 1
    45   25   42 1
@<TRIPOS>MOLECULE
CHEMBL571118__1
   42    45     0     0     0
SMALL
USER_CHARGES

@<TRIPOS>ATOM
      1 C1         -0.0426    1.4539    0.0469 C.3       1 <0>         0.0322
      2 O1         -0.0163    0.0252    0.0375 O.3       1 <0>        -0.3500
      3 C2         -1.2009   -0.6062    0.0387 C.2       1 <0>         0.4705
      4 O2         -2.2262    0.0331    0.0474 O.2       1 <0>        -0.4964
      5 C3         -1.2521   -2.1123    0.0291 C.3       1 <0>        -0.0981
      6 C4         -0.6859   -2.6892    1.3535 C.3       1 <0>        -0.1188
      7 C5         -1.4213   -4.0499    1.4394 C.3       1 <0>         0.1150
      8 N1         -2.7735   -3.7817    0.9170 N.pl3     1 <0>        -0.6079
      9 C6         -2.7132   -2.6090    0.0324 C.3       1 <0>         0.1300
     10 C7         -3.9133   -4.5146    1.2107 C.ar      1 <0>         0.4611
     11 C8         -3.8696   -5.5411    2.1485 C.ar      1 <0>        -0.2862
     12 C9         -5.0458   -6.2486    2.4083 C.ar      1 <0>         0.3038
     13 N2         -6.1601   -5.9141    1.7501 N.ar      1 <0>        -0.5808
     14 C10        -6.1554   -4.9351    0.8704 C.ar      1 <0>         0.3476
     15 N3         -5.0667   -4.2421    0.6027 N.ar      1 <0>        -0.5893
     16 C11        -5.0578   -7.3477    3.3931 C.2       1 <0>        -0.2527
     17 C12        -6.1846   -8.0733    3.8231 C.2       1 <0>         0.4264
     18 N4         -5.7961   -8.9694    4.7033 N.2       1 <0>        -0.3722
     19 N5         -4.4123   -8.8695    4.8849 N.pl3     1 <0>        -0.2936
     20 C13        -3.9475   -7.8705    4.0726 C.2       1 <0>         0.3165
     21 N6         -2.6477   -7.5634    4.0445 N.2       1 <0>        -0.4748
     22 C14        -1.7852   -8.2143    4.7928 C.2       1 <0>         0.1939
     23 C15        -2.2212   -9.2448    5.6347 C.2       1 <0>        -0.2382
     24 C16        -3.5410   -9.5589    5.6749 C.2       1 <0>         0.1834
     25 N7         -7.4943   -7.8744    3.3888 N.pl3     1 <0>        -0.8151
     26 H1          0.9782    1.8361    0.0448 H         1 <0>         0.1047
     27 H2         -0.5671    1.8135   -0.8384 H         1 <0>         0.0625
     28 H3         -0.5591    1.8019    0.9415 H         1 <0>         0.0618
     29 H4         -0.7116   -2.5096   -0.8300 H         1 <0>         0.1264
     30 H5          0.3928   -2.8315    1.2880 H         1 <0>         0.1032
     31 H6         -0.9437   -2.0516    2.1991 H         1 <0>         0.0834
     32 H7         -0.9168   -4.7934    0.8224 H         1 <0>         0.0763
     33 H8         -1.4745   -4.3876    2.4744 H         1 <0>         0.0859
     34 H9         -3.3702   -1.8255    0.4101 H         1 <0>         0.0883
     35 H10        -3.0112   -2.8907   -0.9775 H         1 <0>         0.0784
     36 H11        -2.9511   -5.7847    2.6617 H         1 <0>         0.1547
     37 H12        -7.0723   -4.6897    0.3551 H         1 <0>         0.1949
     38 H13        -0.7377   -7.9538    4.7581 H         1 <0>         0.1840
     39 H14        -1.5145   -9.7811    6.2505 H         1 <0>         0.1715
     40 H15        -3.8950  -10.3519    6.3169 H         1 <0>         0.1837
     41 H16        -7.6791   -7.2374    2.6809 H         1 <0>         0.4290
     42 H17        -8.2208   -8.3729    3.7944 H         1 <0>         0.4049
@<TRIPOS>BOND
     1    1    2 1
     2    1   26 1
     3    1   27 1
     4    1   28 1
     5    2    3 1
     6    3    4 2
     7    3    5 1
     8    5    9 1
     9    5    6 1
    10    5   29 1
    11    6    7 1
    12    6   30 1
    13    6   31 1
    14    7    8 1
    15    7   32 1
    16    7   33 1
    17    8    9 1
    18    8   10 1
    19    9   34 1
    20    9   35 1
    21   10   15 ar
    22   10   11 ar
    23   11   12 ar
    24   11   36 1
    25   12   13 ar
    26   12   16 1
    27   13   14 ar
    28   14   15 ar
    29   14   37 1
    30   16   20 2
    31   16   17 1
    32   17   18 2
    33   17   25 1
    34   18   19 1
    35   19   24 1
    36   19   20 1
    37   20   21 1
    38   21   22 2
    39   22   23 1
    40   22   38 1
    41   23   24 2
    42   23   39 1
    43   24   40 1
    44   25   41 1
    45   25   42 1
@<TRIPOS>MOLECULE
CHEMBL591096
   39    43     0     0     0
SMALL
USER_CHARGES

@<TRIPOS>ATOM
      1 C1         -0.1851    1.1415   -0.0629 C.ar      1 <0>        -0.1332
      2 C2          0.9631    1.9146   -0.0282 C.ar      1 <0>        -0.0901
      3 C3          2.2019    1.3086   -0.0311 C.ar      1 <0>        -0.1412
      4 C4          2.3154   -0.0748   -0.0632 C.ar      1 <0>         0.2100
      5 C5          1.1487   -0.8701   -0.0795 C.ar      1 <0>        -0.0880
      6 C6         -0.0960   -0.2312   -0.0892 C.ar      1 <0>        -0.0894
      7 C7          1.1806   -2.3408   -0.0591 C.ar      1 <0>         0.0624
      8 C8          0.1407   -3.0611    0.5462 C.ar      1 <0>        -0.1989
      9 C9          0.1226   -4.4404    0.4845 C.ar      1 <0>         0.1282
     10 N1          1.0446   -5.1594   -0.1370 N.ar      1 <0>        -0.4867
     11 C10         2.0735   -4.5356   -0.7033 C.ar      1 <0>         0.2876
     12 C11         2.1848   -3.1234   -0.6421 C.ar      1 <0>        -0.1311
     13 C12         3.5003   -2.8074   -1.1897 C.2       1 <0>        -0.1830
     14 C13         4.0299   -3.9563   -1.6287 C.2       1 <0>         0.0764
     15 N2          3.1593   -4.9930   -1.3864 N.pl3     1 <0>        -0.5791
     16 H1          3.2980   -5.9130   -1.6609 H         1 <0>         0.4234
     17 C14         4.0775   -1.4304   -1.2112 C.3       1 <0>         0.2902
     18 N3          3.5558   -0.6651   -0.0968 N.pl3     1 <0>        -0.7662
     19 C15         3.7055   -0.7509   -2.5039 C.ar      1 <0>        -0.0725
     20 C16         4.6962   -0.2934   -3.3529 C.ar      1 <0>        -0.1014
     21 C17         4.3589    0.3305   -4.5388 C.ar      1 <0>        -0.1188
     22 C18         3.0249    0.4978   -4.8784 C.ar      1 <0>         0.0751
     23 C19         2.0306    0.0372   -4.0247 C.ar      1 <0>         0.0736
     24 C20         2.3743   -0.5912   -2.8413 C.ar      1 <0>        -0.1208
     25 F1          0.7298    0.1983   -4.3522 F         1 <0>        -0.1321
     26 O1          2.6909    1.1117   -6.0445 O.3       1 <0>        -0.4885
     27 H2         -1.1544    1.6178   -0.0648 H         1 <0>         0.1264
     28 H3          0.8886    2.9916    0.0007 H         1 <0>         0.1263
     29 H4          3.0939    1.9171   -0.0085 H         1 <0>         0.1257
     30 H5         -0.9988   -0.8234   -0.1176 H         1 <0>         0.1252
     31 H6         -0.6487   -2.5352    1.0626 H         1 <0>         0.1375
     32 H7         -0.6887   -4.9619    0.9706 H         1 <0>         0.1582
     33 H8          4.9955   -4.0541   -2.1023 H         1 <0>         0.1801
     34 H9          5.1630   -1.4908   -1.1332 H         1 <0>         0.1047
     35 H10         4.1239   -0.5617    0.6826 H         1 <0>         0.3974
     36 H11         5.7353   -0.4235   -3.0886 H         1 <0>         0.1362
     37 H12         5.1338    0.6880   -5.2006 H         1 <0>         0.1403
     38 H13         1.6023   -0.9537   -2.1787 H         1 <0>         0.1436
     39 H14         2.6015    0.5086   -6.7951 H         1 <0>         0.3927
@<TRIPOS>BOND
     1    1    6 ar
     2    1    2 ar
     3    1   27 1
     4    2    3 ar
     5    2   28 1
     6    3    4 ar
     7    3   29 1
     8    4   18 1
     9    4    5 ar
    10    5    6 ar
    11    5    7 1
    12    6   30 1
    13    7   12 ar
    14    7    8 ar
    15    8    9 ar
    16    8   31 1
    17    9   10 ar
    18    9   32 1
    19   10   11 ar
    20   11   15 1
    21   11   12 ar
    22   12   13 1
    23   13   14 2
    24   13   17 1
    25   14   15 1
    26   14   33 1
    27   15   16 1
    28   17   18 1
    29   17   19 1
    30   17   34 1
    31   18   35 1
    32   19   24 ar
    33   19   20 ar
    34   20   21 ar
    35   20   36 1
    36   21   22 ar
    37   21   37 1
    38   22   23 ar
    39   22   26 1
    40   23   24 ar
    41   23   25 1
    42   24   38 1
    43   26   39 1
@<TRIPOS>MOLECULE
CHEMBL591096__1
   39    43     0     0     0
SMALL
USER_CHARGES

@<TRIPOS>ATOM
      1 C1          0.3335    1.7833   -0.1069 C.ar      1 <0>        -0.1342
      2 C2          1.5817    2.3785   -0.0376 C.ar      1 <0>        -0.0898
      3 C3          2.7169    1.5962   -0.0026 C.ar      1 <0>        -0.1406
      4 C4          2.6261    0.2113   -0.0417 C.ar      1 <0>         0.2112
      5 C5          1.3575   -0.4022   -0.1316 C.ar      1 <0>        -0.0865
      6 C6          0.2205    0.4128   -0.1521 C.ar      1 <0>        -0.0902
      7 C7          1.1767   -1.8588   -0.2324 C.ar      1 <0>         0.0624
      8 C8          0.0817   -2.3876   -0.9311 C.ar      1 <0>        -0.1990
      9 C9         -0.1403   -3.7502   -0.9473 C.ar      1 <0>         0.1279
     10 N1          0.6283   -4.6266   -0.3191 N.ar      1 <0>        -0.4867
     11 C10         1.7009   -4.1898    0.3344 C.ar      1 <0>         0.2877
     12 C11         2.0196   -2.8083    0.3582 C.ar      1 <0>        -0.1302
     13 C12         3.3315   -2.7171    0.9914 C.2       1 <0>        -0.1819
     14 C13         3.6611   -3.9513    1.3928 C.2       1 <0>         0.0766
     15 N2          2.6655   -4.8349    1.0472 N.pl3     1 <0>        -0.5790
     16 H1          2.6522   -5.7772    1.2772 H         1 <0>         0.4235
     17 C14         4.1000   -1.4433    1.1203 C.3       1 <0>         0.2900
     18 N3          3.7633   -0.5572    0.0243 N.pl3     1 <0>        -0.7663
     19 C15         3.7531   -0.7784    2.4274 C.ar      1 <0>        -0.0718
     20 C16         2.4410   -0.4407    2.7029 C.ar      1 <0>        -0.0934
     21 C17         2.1192    0.1695    3.9002 C.ar      1 <0>        -0.1168
     22 C18         3.1134    0.4432    4.8272 C.ar      1 <0>         0.0771
     23 C19         4.4312    0.1030    4.5494 C.ar      1 <0>         0.0717
     24 C20         4.7467   -0.5124    3.3513 C.ar      1 <0>        -0.1274
     25 F1          5.4026    0.3680    5.4501 F         1 <0>        -0.1325
     26 O1          2.7991    1.0439    6.0057 O.3       1 <0>        -0.4885
     27 H2         -0.5551    2.3971   -0.1210 H         1 <0>         0.1261
     28 H3          1.6664    3.4549   -0.0114 H         1 <0>         0.1260
     29 H4          3.6876    2.0662    0.0555 H         1 <0>         0.1251
     30 H5         -0.7588   -0.0397   -0.2040 H         1 <0>         0.1251
     31 H6         -0.5905   -1.7265   -1.4580 H         1 <0>         0.1374
     32 H7         -0.9885   -4.1221   -1.5030 H         1 <0>         0.1580
     33 H8          4.5722   -4.2136    1.9100 H         1 <0>         0.1797
     34 H9          5.1680   -1.6600    1.0965 H         1 <0>         0.1028
     35 H10         4.3864   -0.5025   -0.7171 H         1 <0>         0.3975
     36 H11         1.6664   -0.6538    1.9811 H         1 <0>         0.1379
     37 H12         1.0940    0.4333    4.1137 H         1 <0>         0.1370
     38 H13         5.7702   -0.7815    3.1358 H         1 <0>         0.1411
     39 H14         2.5813    0.4255    6.7165 H         1 <0>         0.3929
@<TRIPOS>BOND
     1    1    6 ar
     2    1    2 ar
     3    1   27 1
     4    2    3 ar
     5    2   28 1
     6    3    4 ar
     7    3   29 1
     8    4   18 1
     9    4    5 ar
    10    5    6 ar
    11    5    7 1
    12    6   30 1
    13    7   12 ar
    14    7    8 ar
    15    8    9 ar
    16    8   31 1
    17    9   10 ar
    18    9   32 1
    19   10   11 ar
    20   11   15 1
    21   11   12 ar
    22   12   13 1
    23   13   14 2
    24   13   17 1
    25   14   15 1
    26   14   33 1
    27   15   16 1
    28   17   18 1
    29   17   19 1
    30   17   34 1
    31   18   35 1
    32   19   24 ar
    33   19   20 ar
    34   20   21 ar
    35   20   36 1
    36   21   22 ar
    37   21   37 1
    38   22   23 ar
    39   22   26 1
    40   23   24 ar
    41   23   25 1
    42   24   38 1
    43   26   39 1
@<TRIPOS>MOLECULE
CHEMBL272424
   37    41     0     0     0
SMALL
USER_CHARGES

@<TRIPOS>ATOM
      1 C1         -0.0164    1.3796    0.0115 C.ar      1 <0>        -0.0612
      2 C2          0.0003   -0.0032   -0.0155 C.ar      1 <0>        -0.1439
      3 C3          1.2037   -0.6827   -0.0317 C.ar      1 <0>         0.1219
      4 C4          2.4054    0.0317   -0.0208 C.ar      1 <0>        -0.0538
      5 C5          2.3794    1.4279    0.0065 C.ar      1 <0>         0.0252
      6 C6          1.1690    2.0926    0.0224 C.ar      1 <0>        -0.1178
      7 Cl1         3.8652    2.3256    0.0209 Cl        1 <0>        -0.0060
      8 C7          3.6965   -0.6867   -0.0375 C.2       1 <0>         0.2969
      9 N1          3.8467   -2.0408    0.0454 N.pl3     1 <0>        -0.5556
     10 H1          3.1356   -2.6957    0.1250 H         1 <0>         0.4282
     11 C8          5.2017   -2.3029   -0.0055 C.ar      1 <0>         0.0181
     12 C9          5.9475   -3.4992    0.0372 C.ar      1 <0>         0.0860
     13 C10         5.2979   -4.7562    0.1544 C.2       1 <0>        -0.2260
     14 C11         6.0299   -5.8842    0.1937 C.2       1 <0>         0.1446
     15 N2          7.3922   -5.8550    0.1235 N.am      1 <0>        -0.6151
     16 H2          7.8869   -6.6888    0.1549 H         1 <0>         0.4208
     17 C12         8.0652   -4.6934    0.0111 C.2       1 <0>         0.5433
     18 O1          9.2830   -4.6943   -0.0507 O.2       1 <0>        -0.5280
     19 C13         7.3516   -3.4722   -0.0350 C.ar      1 <0>        -0.1568
     20 C14         8.0506   -2.1921   -0.1568 C.ar      1 <0>         0.0198
     21 C15         9.4454   -2.1314   -0.2313 C.ar      1 <0>        -0.1465
     22 C16        10.0678   -0.9080   -0.3458 C.ar      1 <0>         0.1078
     23 C17         9.3203    0.2655   -0.3874 C.ar      1 <0>        -0.1511
     24 C18         7.9577    0.2287   -0.3156 C.ar      1 <0>        -0.0590
     25 C19         7.2986   -0.9980   -0.1999 C.ar      1 <0>        -0.0226
     26 C20         5.8344   -1.0663   -0.1200 C.ar      1 <0>         0.1088
     27 N3          4.8779   -0.1220   -0.1401 N.2       1 <0>        -0.4397
     28 F1         11.4155   -0.8463   -0.4181 F         1 <0>        -0.1356
     29 F2          1.2187   -2.0334   -0.0576 F         1 <0>        -0.1314
     30 H3         -0.9597    1.9055    0.0195 H         1 <0>         0.1513
     31 H4         -0.9292   -0.5531   -0.0236 H         1 <0>         0.1512
     32 H5          1.1478    3.1722    0.0435 H         1 <0>         0.1513
     33 H6          4.2206   -4.8065    0.2122 H         1 <0>         0.1439
     34 H7          5.5271   -6.8358    0.2834 H         1 <0>         0.1703
     35 H8         10.0312   -3.0382   -0.1989 H         1 <0>         0.1778
     36 H9          9.8244    1.2164   -0.4770 H         1 <0>         0.1397
     37 H10         7.3896    1.1466   -0.3489 H         1 <0>         0.1433
@<TRIPOS>BOND
     1    1    6 ar
     2    1    2 ar
     3    1   30 1
     4    2    3 ar
     5    2   31 1
     6    3    4 ar
     7    3   29 1
     8    4    5 ar
     9    4    8 1
    10    5    6 ar
    11    5    7 1
    12    6   32 1
    13    8   27 2
    14    8    9 1
    15    9   10 1
    16    9   11 1
    17   11   26 ar
    18   11   12 ar
    19   12   19 ar
    20   12   13 1
    21   13   14 2
    22   13   33 1
    23   14   15 1
    24   14   34 1
    25   15   16 1
    26   15   17 am
    27   17   18 2
    28   17   19 1
    29   19   20 ar
    30   20   25 ar
    31   20   21 ar
    32   21   22 ar
    33   21   35 1
    34   22   23 ar
    35   22   28 1
    36   23   24 ar
    37   23   36 1
    38   24   25 ar
    39   24   37 1
    40   25   26 ar
    41   26   27 1
@<TRIPOS>MOLECULE
CHEMBL1080159
   65    69     0     0     0
SMALL
USER_CHARGES

@<TRIPOS>ATOM
      1 C1          0.7410   -2.1234    2.4314 C.3       1 <0>        -0.1146
      2 C2          0.3606   -1.4502    1.1379 C.ar      1 <0>        -0.0044
      3 C3          0.4298   -2.1463   -0.0475 C.ar      1 <0>        -0.1311
      4 C4          0.0787   -1.5253   -1.2425 C.ar      1 <0>         0.1925
      5 C5         -0.3429   -0.1986   -1.2432 C.ar      1 <0>        -0.1575
      6 C6         -0.4137    0.5031   -0.0615 C.ar      1 <0>        -0.0575
      7 C7         -0.0682   -0.1200    1.1414 C.ar      1 <0>        -0.1520
      8 C8         -0.1492    0.6274    2.4110 C.2       1 <0>         0.5621
      9 O1         -0.6772    0.1208    3.3821 O.2       1 <0>        -0.5268
     10 N1          0.3620    1.8717    2.4944 N.am      1 <0>        -0.6191
     11 C9          0.1831    2.6566    3.7184 C.3       1 <0>         0.0849
     12 C10         1.0966    2.4392    1.3611 C.3       1 <0>         0.0746
     13 N2          0.1498   -2.2324   -2.4400 N.pl3     1 <0>        -0.6143
     14 C11        -0.0453   -3.5970   -2.4473 C.2       1 <0>         0.4924
     15 N3         -0.4067   -4.3086   -1.4106 N.2       1 <0>        -0.5101
     16 C12        -0.5012   -5.6131   -1.7884 C.ar      1 <0>         0.0585
     17 C13        -0.8392   -6.7888   -1.1149 C.ar      1 <0>        -0.0629
     18 C14        -0.8452   -7.9914   -1.7887 C.ar      1 <0>        -0.1067
     19 C15        -0.5177   -8.0464   -3.1323 C.ar      1 <0>        -0.0850
     20 C16        -0.1777   -6.8855   -3.8206 C.ar      1 <0>        -0.0191
     21 C17        -0.1691   -5.6617   -3.1489 C.ar      1 <0>         0.0155
     22 O2          0.1023   -4.3911   -3.5225 O.3       1 <0>        -0.2214
     23 C18         0.1736   -6.9483   -5.2603 C.ar      1 <0>         0.0116
     24 C19        -0.4315   -6.0791   -6.1658 C.ar      1 <0>        -0.1455
     25 C20        -0.1006   -6.1409   -7.5067 C.ar      1 <0>         0.1373
     26 C21         0.8306   -7.0652   -7.9505 C.ar      1 <0>        -0.1490
     27 C22         1.4343   -7.9315   -7.0541 C.ar      1 <0>         0.1555
     28 C23         1.1141   -7.8727   -5.7105 C.ar      1 <0>        -0.1481
     29 F1          2.3412   -8.8317   -7.4927 F         1 <0>        -0.1208
     30 C24         1.1875   -7.1289   -9.4133 C.3       1 <0>         0.0945
     31 N4          2.3168   -6.2284   -9.6814 N.3       1 <0>        -0.5306
     32 C25         1.9292   -4.8241   -9.4836 C.3       1 <0>         0.0150
     33 C26         3.1478   -3.9267   -9.7147 C.3       1 <0>         0.0646
     34 O3          3.6677   -4.1654  -11.0254 O.3       1 <0>        -0.3838
     35 C27         4.0558   -5.5230  -11.2524 C.3       1 <0>         0.0637
     36 C28         2.8464   -6.4367  -11.0369 C.3       1 <0>         0.0176
     37 F2         -0.6867   -5.2986   -8.3856 F         1 <0>        -0.1267
     38 H1         -0.1543   -2.5152    2.9141 H         1 <0>         0.0849
     39 H2          1.4306   -2.9421    2.2258 H         1 <0>         0.0678
     40 H3          1.2219   -1.4000    3.0899 H         1 <0>         0.0682
     41 H4          0.7572   -3.1755   -0.0504 H         1 <0>         0.1493
     42 H5         -0.6143    0.2807   -2.1722 H         1 <0>         0.1350
     43 H6         -0.7406    1.5324   -0.0628 H         1 <0>         0.1356
     44 H7          1.0147    2.4662    4.3969 H         1 <0>         0.0568
     45 H8          0.1534    3.7172    3.4687 H         1 <0>         0.0716
     46 H9         -0.7518    2.3703    4.2002 H         1 <0>         0.0774
     47 H10         0.4137    3.0167    0.7380 H         1 <0>         0.0589
     48 H11         1.8892    3.0897    1.7309 H         1 <0>         0.0727
     49 H12         1.5335    1.6335    0.7711 H         1 <0>         0.0777
     50 H13         0.3366   -1.7647   -3.2690 H         1 <0>         0.4298
     51 H14        -1.0955   -6.7560   -0.0662 H         1 <0>         0.1407
     52 H15        -1.1072   -8.8982   -1.2637 H         1 <0>         0.1438
     53 H16        -0.5257   -8.9947   -3.6490 H         1 <0>         0.1451
     54 H17        -1.1582   -5.3585   -5.8207 H         1 <0>         0.1416
     55 H18         1.5886   -8.5455   -5.0115 H         1 <0>         0.1494
     56 H19         1.4667   -8.1496   -9.6750 H         1 <0>         0.0962
     57 H20         0.3288   -6.8226  -10.0105 H         1 <0>         0.0564
     58 H21         1.1434   -4.5603  -10.1914 H         1 <0>         0.0485
     59 H22         1.5641   -4.6872   -8.4657 H         1 <0>         0.0821
     60 H23         2.8522   -2.8813   -9.6252 H         1 <0>         0.0991
     61 H24         3.9132   -4.1539   -8.9726 H         1 <0>         0.0598
     62 H25         4.4168   -5.6323  -12.2751 H         1 <0>         0.1011
     63 H26         4.8476   -5.7967  -10.5550 H         1 <0>         0.0613
     64 H27         3.1508   -7.4769  -11.1529 H         1 <0>         0.0899
     65 H28         2.0752   -6.1986  -11.7695 H         1 <0>         0.0466
@<TRIPOS>BOND
     1    1    2 1
     2    1   38 1
     3    1   39 1
     4    1   40 1
     5    2    7 ar
     6    2    3 ar
     7    3    4 ar
     8    3   41 1
     9    4    5 ar
    10    4   13 1
    11    5    6 ar
    12    5   42 1
    13    6    7 ar
    14    6   43 1
    15    7    8 1
    16    8    9 2
    17    8   10 am
    18   10   11 1
    19   10   12 1
    20   11   44 1
    21   11   45 1
    22   11   46 1
    23   12   47 1
    24   12   48 1
    25   12   49 1
    26   13   14 1
    27   13   50 1
    28   14   22 1
    29   14   15 2
    30   15   16 1
    31   16   21 ar
    32   16   17 ar
    33   17   18 ar
    34   17   51 1
    35   18   19 ar
    36   18   52 1
    37   19   20 ar
    38   19   53 1
    39   20   21 ar
    40   20   23 1
    41   21   22 1
    42   23   28 ar
    43   23   24 ar
    44   24   25 ar
    45   24   54 1
    46   25   26 ar
    47   25   37 1
    48   26   27 ar
    49   26   30 1
    50   27   28 ar
    51   27   29 1
    52   28   55 1
    53   30   31 1
    54   30   56 1
    55   30   57 1
    56   31   36 1
    57   31   32 1
    58   32   33 1
    59   32   58 1
    60   32   59 1
    61   33   34 1
    62   33   60 1
    63   33   61 1
    64   34   35 1
    65   35   36 1
    66   35   62 1
    67   35   63 1
    68   36   64 1
    69   36   65 1
@<TRIPOS>MOLECULE
CHEMBL375205
   49    53     0     0     0
SMALL
USER_CHARGES

@<TRIPOS>ATOM
      1 C1         -0.0187    1.5258    0.0104 C.3       1 <0>        -0.1671
      2 C2          0.0021   -0.0041    0.0020 C.3       1 <0>         0.1917
      3 H1         -1.0205   -0.3814    0.0098 H         1 <0>         0.0953
      4 C3          0.7074   -0.4901   -1.2379 C.ar      1 <0>        -0.0989
      5 C4          2.0889   -0.5108   -1.2839 C.ar      1 <0>        -0.1117
      6 C5          2.7359   -0.9566   -2.4212 C.ar      1 <0>        -0.1135
      7 C6          2.0015   -1.3821   -3.5123 C.ar      1 <0>        -0.1136
      8 C7          0.6201   -1.3622   -3.4659 C.ar      1 <0>        -0.1145
      9 C8         -0.0269   -0.9205   -2.3270 C.ar      1 <0>        -0.1056
     10 N1          0.7106   -0.4894    1.1889 N.pl3     1 <0>        -0.6988
     11 C9          0.0325   -0.6376    2.3886 C.ar      1 <0>         0.4810
     12 C10        -1.3246   -0.3331    2.4748 C.ar      1 <0>        -0.3058
     13 C11        -1.9630   -0.4981    3.7026 C.ar      1 <0>         0.3186
     14 N2         -1.2575   -0.9387    4.7453 N.ar      1 <0>        -0.5650
     15 C12         0.0292   -1.2169    4.6232 C.ar      1 <0>         0.5942
     16 N3          0.6671   -1.0775    3.4717 N.ar      1 <0>        -0.5981
     17 N4          0.7316   -1.6743    5.7352 N.pl3     1 <0>        -0.4240
     18 C13         0.2245   -1.8821    6.9836 C.2       1 <0>         0.3147
     19 N5          1.1592   -2.3123    7.7800 N.2       1 <0>        -0.4805
     20 C14         2.3306   -2.4116    7.1026 C.ar      1 <0>         0.0807
     21 C15         2.0747   -2.0090    5.7788 C.ar      1 <0>         0.0509
     22 C16         3.0950   -2.0120    4.8450 C.ar      1 <0>        -0.0288
     23 C17         4.3741   -2.4185    5.2242 C.ar      1 <0>        -0.0201
     24 C18         4.6212   -2.8214    6.5436 C.ar      1 <0>        -0.0744
     25 C19         3.6205   -2.8123    7.4685 C.ar      1 <0>        -0.0648
     26 C20         5.4364   -2.4248    4.2640 C.1       1 <0>         0.2577
     27 N6          6.2791   -2.4297    3.5022 N.1       1 <0>        -0.4118
     28 C21        -3.4049   -0.1880    3.8477 C.2       1 <0>        -0.1637
     29 C22        -4.1947   -0.2044    5.0848 C.2       1 <0>        -0.1730
     30 C23        -5.4435    0.1418    4.7316 C.2       1 <0>        -0.0362
     31 O1         -5.4783    0.3630    3.4086 O.3       1 <0>        -0.1728
     32 C24        -4.2691    0.1764    2.8635 C.2       1 <0>         0.0216
     33 H2          1.0039    1.9031    0.0027 H         1 <0>         0.0656
     34 H3         -0.5459    1.8868   -0.8726 H         1 <0>         0.0755
     35 H4         -0.5289    1.8773    0.9072 H         1 <0>         0.0660
     36 H5          2.6626   -0.1783   -0.4315 H         1 <0>         0.1199
     37 H6          3.8152   -0.9721   -2.4575 H         1 <0>         0.1257
     38 H7          2.5070   -1.7297   -4.4012 H         1 <0>         0.1253
     39 H8          0.0463   -1.6944   -4.3185 H         1 <0>         0.1268
     40 H9         -1.1062   -0.9085   -2.2894 H         1 <0>         0.1257
     41 H10         1.6544   -0.7070    1.1351 H         1 <0>         0.4101
     42 H11        -1.8680    0.0222    1.6118 H         1 <0>         0.1491
     43 H12        -0.8032   -1.7138    7.2698 H         1 <0>         0.2290
     44 H13         2.9023   -1.7018    3.8286 H         1 <0>         0.1483
     45 H14         5.6136   -3.1358    6.8309 H         1 <0>         0.1434
     46 H15         3.8205   -3.1258    8.4824 H         1 <0>         0.1461
     47 H16        -3.8433   -0.4460    6.0771 H         1 <0>         0.1605
     48 H17        -6.2843    0.2276    5.4040 H         1 <0>         0.2095
     49 H18        -4.0228    0.2935    1.8185 H         1 <0>         0.2100
@<TRIPOS>BOND
     1    1    2 1
     2    1   33 1
     3    1   34 1
     4    1   35 1
     5    2    3 1
     6    2    4 1
     7    2   10 1
     8    4    9 ar
     9    4    5 ar
    10    5    6 ar
    11    5   36 1
    12    6    7 ar
    13    6   37 1
    14    7    8 ar
    15    7   38 1
    16    8    9 ar
    17    8   39 1
    18    9   40 1
    19   10   11 1
    20   10   41 1
    21   11   16 ar
    22   11   12 ar
    23   12   13 ar
    24   12   42 1
    25   13   14 ar
    26   13   28 1
    27   14   15 ar
    28   15   16 ar
    29   15   17 1
    30   17   21 1
    31   17   18 1
    32   18   19 2
    33   18   43 1
    34   19   20 1
    35   20   25 ar
    36   20   21 ar
    37   21   22 ar
    38   22   23 ar
    39   22   44 1
    40   23   24 ar
    41   23   26 1
    42   24   25 ar
    43   24   45 1
    44   25   46 1
    45   26   27 3
    46   28   32 2
    47   28   29 1
    48   29   30 2
    49   29   47 1
    50   30   31 1
    51   30   48 1
    52   31   32 1
    53   32   49 1
@<TRIPOS>MOLECULE
CHEMBL1087398
   49    52     0     0     0
SMALL
USER_CHARGES

@<TRIPOS>ATOM
      1 C1         -0.0584    1.5320   -0.0175 C.3       1 <0>        -0.1519
      2 C2         -0.0247    0.0024   -0.0305 C.3       1 <0>         0.2178
      3 H1         -1.0438   -0.3836   -0.0083 H         1 <0>         0.1199
      4 C3          0.6658   -0.4742   -1.2824 C.ar      1 <0>         0.1101
      5 C4         -0.0571   -0.6035   -2.4535 C.ar      1 <0>        -0.1301
      6 C5          0.5862   -1.0425   -3.5999 C.ar      1 <0>        -0.1031
      7 C6          1.9414   -1.3369   -3.5252 C.ar      1 <0>         0.0464
      8 C7          2.5984   -1.1829   -2.3167 C.ar      1 <0>         0.0827
      9 N1          1.9530   -0.7574   -1.2483 N.ar      1 <0>        -0.4545
     10 F1          2.6094   -1.7684   -4.6174 F         1 <0>        -0.1279
     11 N2          0.7060   -0.4800    1.1440 N.pl3     1 <0>        -0.6814
     12 C8          0.0486   -0.6369    2.3516 C.ar      1 <0>         0.6339
     13 N3         -1.2426   -0.3512    2.4248 N.ar      1 <0>        -0.5879
     14 C9         -1.9078   -0.4904    3.5691 C.ar      1 <0>         0.4757
     15 C10        -1.2289   -0.9425    4.6965 C.ar      1 <0>        -0.3833
     16 C11         0.1276   -1.2327    4.5809 C.ar      1 <0>         0.5031
     17 N4          0.7258   -1.0741    3.4024 N.ar      1 <0>        -0.6372
     18 N5          0.8447   -1.6858    5.6772 N.pl3     1 <0>        -0.6003
     19 C12         2.3117   -1.7914    5.6317 C.3       1 <0>         0.0908
     20 C13         2.8858   -1.0844    6.8648 C.3       1 <0>         0.0458
     21 O1          2.2487   -1.5941    8.0388 O.3       1 <0>        -0.3786
     22 C14         0.8404   -1.3542    8.0914 C.3       1 <0>         0.0463
     23 C15         0.1620   -2.0696    6.9230 C.3       1 <0>         0.0875
     24 N6         -3.2612   -0.1882    3.6373 N.pl3     1 <0>        -0.5879
     25 C16        -3.9026    0.3608    2.5431 C.2       1 <0>         0.3078
     26 N7         -3.4162    0.5769    1.3349 N.2       1 <0>        -0.5176
     27 C17        -4.1487    1.1101    0.3877 C.2       1 <0>         0.1606
     28 C18        -5.4549    1.4316    0.7264 C.2       1 <0>        -0.2159
     29 S1         -5.4910    0.9057    2.4326 S.3       1 <0>         0.1906
     30 C19        -6.4893    2.0172   -0.0722 C.1       1 <0>         0.3028
     31 N8         -7.3098    2.4817   -0.7058 N.1       1 <0>        -0.4009
     32 H2          0.9607    1.9181   -0.0398 H         1 <0>         0.0548
     33 H3         -0.6021    1.8909   -0.8914 H         1 <0>         0.0656
     34 H4         -0.5578    1.8767    0.8880 H         1 <0>         0.0742
     35 H5         -1.1104   -0.3658   -2.4748 H         1 <0>         0.1496
     36 H6          0.0466   -1.1533   -4.5289 H         1 <0>         0.1511
     37 H7          3.6522   -1.4094   -2.2490 H         1 <0>         0.1702
     38 H8          1.6507   -0.6893    1.0753 H         1 <0>         0.4228
     39 H9         -1.7421   -1.0650    5.6388 H         1 <0>         0.1388
     40 H10         2.6047   -2.8412    5.6408 H         1 <0>         0.0727
     41 H11         2.6863   -1.3130    4.7267 H         1 <0>         0.1060
     42 H12         3.9585   -1.2686    6.9236 H         1 <0>         0.1078
     43 H13         2.7034   -0.0125    6.7879 H         1 <0>         0.0557
     44 H14         0.4415   -1.7325    9.0326 H         1 <0>         0.1086
     45 H15         0.6505   -0.2833    8.0189 H         1 <0>         0.0569
     46 H16        -0.8864   -1.7754    6.8727 H         1 <0>         0.0966
     47 H17         0.2348   -3.1479    7.0643 H         1 <0>         0.0787
     48 H18        -3.7566   -0.3623    4.4528 H         1 <0>         0.4403
     49 H19        -3.7565    1.2897   -0.6024 H         1 <0>         0.1862
@<TRIPOS>BOND
     1    1    2 1
     2    1   32 1
     3    1   33 1
     4    1   34 1
     5    2    3 1
     6    2    4 1
     7    2   11 1
     8    4    9 ar
     9    4    5 ar
    10    5    6 ar
    11    5   35 1
    12    6    7 ar
    13    6   36 1
    14    7    8 ar
    15    7   10 1
    16    8    9 ar
    17    8   37 1
    18   11   12 1
    19   11   38 1
    20   12   17 ar
    21   12   13 ar
    22   13   14 ar
    23   14   15 ar
    24   14   24 1
    25   15   16 ar
    26   15   39 1
    27   16   17 ar
    28   16   18 1
    29   18   23 1
    30   18   19 1
    31   19   20 1
    32   19   40 1
    33   19   41 1
    34   20   21 1
    35   20   42 1
    36   20   43 1
    37   21   22 1
    38   22   23 1
    39   22   44 1
    40   22   45 1
    41   23   46 1
    42   23   47 1
    43   24   25 1
    44   24   48 1
    45   25   29 1
    46   25   26 2
    47   26   27 1
    48   27   28 2
    49   27   49 1
    50   28   29 1
    51   28   30 1
    52   30   31 3
@<TRIPOS>MOLECULE
CHEMBL1087398__1
   50    53     0     0     0
SMALL
USER_CHARGES

@<TRIPOS>ATOM
      1 C1         -0.0741    1.6042   -0.0748 C.3       1 <0>        -0.1771
      2 C2         -0.0259    0.0750   -0.0623 C.3       1 <0>         0.1890
      3 H1          0.4802   -0.2798   -0.9601 H         1 <0>         0.0980
      4 C3          0.7260   -0.3939    1.1567 C.ar      1 <0>         0.0875
      5 C4          2.1055   -0.4741    1.1188 C.ar      1 <0>        -0.1236
      6 C5          2.7886   -0.9064    2.2445 C.ar      1 <0>        -0.0990
      7 C6          2.0540   -1.2441    3.3738 C.ar      1 <0>         0.0704
      8 C7          0.6744   -1.1380    3.3363 C.ar      1 <0>         0.0894
      9 N1          0.0602   -0.7174    2.2478 N.ar      1 <0>        -0.4510
     10 F1          2.6776   -1.6708    4.4937 F         1 <0>        -0.1163
     11 N2         -1.3907   -0.4564   -0.0286 N.pl3     1 <0>        -0.6546
     12 C8         -2.0985   -0.6206   -1.2063 C.ar      1 <0>         0.6749
     13 N3         -3.3332   -1.0973   -1.1555 N.ar      1 <0>        -0.5331
     14 C9         -4.0443   -1.2682   -2.2676 C.ar      1 <0>         0.5358
     15 C10        -3.4740   -0.9388   -3.4934 C.ar      1 <0>        -0.3490
     16 C11        -2.1744   -0.4406   -3.5070 C.ar      1 <0>         0.5145
     17 N4         -1.5256   -0.2918   -2.3542 N.ar      1 <0>        -0.6039
     18 N5         -1.5657   -0.0991   -4.7046 N.pl3     1 <0>        -0.5845
     19 C12        -0.1499    0.2998   -4.7480 C.3       1 <0>         0.0613
     20 C13         0.5521   -0.5263   -5.8319 C.3       1 <0>         0.0470
     21 O1         -0.1773   -0.4130   -7.0563 O.3       1 <0>        -0.3632
     22 C14        -1.5085   -0.9304   -6.9945 C.3       1 <0>         0.0419
     23 C15        -2.3145   -0.1305   -5.9709 C.3       1 <0>         0.0763
     24 N6         -5.3378   -1.7689   -2.2054 N.pl3     1 <0>        -0.5652
     25 C16        -5.8577   -2.1918   -0.9968 C.2       1 <0>         0.2447
     26 N7         -5.3110   -2.1069    0.2020 N.2       1 <0>        -0.5061
     27 C17        -5.9273   -2.5548    1.2685 C.2       1 <0>         0.1453
     28 C18        -7.1783   -3.1191    1.0654 C.2       1 <0>        -0.1750
     29 S1         -7.3409   -2.9304   -0.7029 S.3       1 <0>         0.2573
     30 C19        -8.0890   -3.6893    2.0120 C.1       1 <0>         0.2859
     31 N8         -8.8115   -4.1416    2.7630 N.1       1 <0>        -0.3684
     32 H2          0.9413    1.9996   -0.0998 H         1 <0>         0.0938
     33 H3         -0.6180    1.9434   -0.9564 H         1 <0>         0.0662
     34 H4         -0.5802    1.9591    0.8231 H         1 <0>         0.0870
     35 H5          2.6444   -0.2036    0.2228 H         1 <0>         0.1512
     36 H6          3.8661   -0.9793    2.2435 H         1 <0>         0.1594
     37 H7          0.0948   -1.3984    4.2096 H         1 <0>         0.1796
     38 H8         -1.7982   -0.6931    0.8192 H         1 <0>         0.4548
     39 H9         -4.0266   -1.0670   -4.4124 H         1 <0>         0.1824
     40 H10        -0.0744    1.3603   -4.9882 H         1 <0>         0.1103
     41 H11         0.3154    0.1078   -3.7812 H         1 <0>         0.0848
     42 H12         1.5655   -0.1518   -5.9759 H         1 <0>         0.1247
     43 H13         0.5895   -1.5717   -5.5258 H         1 <0>         0.0659
     44 H14        -1.9775   -0.8467   -7.9749 H         1 <0>         0.1265
     45 H15        -1.4786   -1.9773   -6.6927 H         1 <0>         0.0668
     46 H16        -3.2820   -0.6073   -5.8135 H         1 <0>         0.1128
     47 H17        -2.4607    0.8860   -6.3363 H         1 <0>         0.1061
     48 H18        -5.8765   -1.8220   -3.0102 H         1 <0>         0.4536
     49 H19        -5.4853   -2.4886    2.2516 H         1 <0>         0.1963
     50 H20        -0.6209    0.0581   -2.3552 H         1 <0>         0.4286
@<TRIPOS>BOND
     1    1    2 1
     2    1   32 1
     3    1   33 1
     4    1   34 1
     5    2    3 1
     6    2    4 1
     7    2   11 1
     8    4    9 ar
     9    4    5 ar
    10    5    6 ar
    11    5   35 1
    12    6    7 ar
    13    6   36 1
    14    7    8 ar
    15    7   10 1
    16    8    9 ar
    17    8   37 1
    18   11   12 1
    19   11   38 1
    20   12   17 ar
    21   12   13 ar
    22   13   14 ar
    23   14   15 ar
    24   14   24 1
    25   15   16 ar
    26   15   39 1
    27   16   17 ar
    28   16   18 1
    29   17   50 1
    30   18   23 1
    31   18   19 1
    32   19   20 1
    33   19   40 1
    34   19   41 1
    35   20   21 1
    36   20   42 1
    37   20   43 1
    38   21   22 1
    39   22   23 1
    40   22   44 1
    41   22   45 1
    42   23   46 1
    43   23   47 1
    44   24   25 1
    45   24   48 1
    46   25   29 1
    47   25   26 2
    48   26   27 1
    49   27   28 2
    50   27   49 1
    51   28   29 1
    52   28   30 1
    53   30   31 3
@<TRIPOS>MOLECULE
CHEMBL257167
   29    30     0     0     0
SMALL
USER_CHARGES

@<TRIPOS>ATOM
      1 C1         -0.0169    1.3916    0.0097 C.ar      1 <0>        -0.0852
      2 C2          1.1697    2.0949    0.0021 C.ar      1 <0>        -0.1431
      3 C3          2.3789    1.4185   -0.0135 C.ar      1 <0>         0.0976
      4 C4          2.4036    0.0330   -0.0212 C.ar      1 <0>        -0.1452
      5 C5          1.2231   -0.6803   -0.0137 C.ar      1 <0>        -0.0781
      6 C6          0.0021   -0.0041    0.0020 C.ar      1 <0>        -0.0007
      7 C7         -1.2663   -0.7632    0.0105 C.2       1 <0>        -0.2065
      8 C8         -1.4491   -2.1118    0.0107 C.2       1 <0>        -0.0829
      9 C9         -2.7731   -2.5575    0.0207 C.2       1 <0>        -0.2667
     10 C10        -3.7751   -1.5939    0.0295 C.2       1 <0>         0.0994
     11 S1         -2.9347   -0.1400    0.0311 S.3       1 <0>         0.3342
     12 N1         -5.1466   -1.7878    0.0397 N.am      1 <0>        -0.6198
     13 C11        -5.9772   -0.7264    0.0473 C.2       1 <0>         0.6992
     14 O1         -5.5226    0.4012    0.0452 O.2       1 <0>        -0.5593
     15 N2         -7.3116   -0.9150    0.0572 N.am      1 <0>        -0.8471
     16 C12        -3.0940   -3.9887    0.0214 C.2       1 <0>         0.5918
     17 O2         -4.2556   -4.3519    0.0297 O.2       1 <0>        -0.5653
     18 N3         -2.1026   -4.9016    0.0128 N.am      1 <0>        -0.8480
     19 F1          3.5381    2.1123   -0.0217 F         1 <0>        -0.1375
     20 H1         -0.9587    1.9198    0.0260 H         1 <0>         0.1345
     21 H2          1.1562    3.1748    0.0081 H         1 <0>         0.1408
     22 H3          3.3488   -0.4892   -0.0334 H         1 <0>         0.1400
     23 H4          1.2434   -1.7601   -0.0204 H         1 <0>         0.1352
     24 H5         -0.6164   -2.7996    0.0032 H         1 <0>         0.1418
     25 H6         -5.5092   -2.6875    0.0414 H         1 <0>         0.4318
     26 H7         -7.6743   -1.8147    0.0589 H         1 <0>         0.4057
     27 H8         -7.9094   -0.1512    0.0627 H         1 <0>         0.4259
     28 H9         -1.1768   -4.6121    0.0061 H         1 <0>         0.4018
     29 H10        -2.3148   -5.8481    0.0132 H         1 <0>         0.4056
@<TRIPOS>BOND
     1    1    6 ar
     2    1    2 ar
     3    1   20 1
     4    2    3 ar
     5    2   21 1
     6    3    4 ar
     7    3   19 1
     8    4    5 ar
     9    4   22 1
    10    5    6 ar
    11    5   23 1
    12    6    7 1
    13    7   11 1
    14    7    8 2
    15    8    9 1
    16    8   24 1
    17    9   10 2
    18    9   16 1
    19   10   11 1
    20   10   12 1
    21   12   13 am
    22   12   25 1
    23   13   14 2
    24   13   15 am
    25   15   26 1
    26   15   27 1
    27   16   17 2
    28   16   18 am
    29   18   28 1
    30   18   29 1
@<TRIPOS>MOLECULE
CHEMBL233151
   67    72     0     0     0
SMALL
USER_CHARGES

@<TRIPOS>ATOM
      1 C1          0.9952   -0.9632   -0.4345 C.3       1 <0>        -0.1623
      2 C2          0.3807   -2.3095   -0.8227 C.3       1 <0>         0.1881
      3 H1          0.5823   -2.5111   -1.8748 H         1 <0>         0.1011
      4 C3          0.9858   -3.4004    0.0227 C.ar      1 <0>        -0.1067
      5 C4          0.5306   -3.6093    1.3111 C.ar      1 <0>        -0.1160
      6 C5          1.0857   -4.6099    2.0866 C.ar      1 <0>        -0.1113
      7 C6          2.0957   -5.4021    1.5735 C.ar      1 <0>        -0.1099
      8 C7          2.5503   -5.1938    0.2848 C.ar      1 <0>        -0.1115
      9 C8          1.9923   -4.1960   -0.4922 C.ar      1 <0>        -0.1036
     10 N1         -1.0671   -2.2672   -0.6023 N.pl3     1 <0>        -0.6714
     11 C9         -1.8988   -1.7561   -1.5776 C.ar      1 <0>         0.5440
     12 C10        -3.2942   -1.7021   -1.3803 C.ar      1 <0>        -0.2478
     13 C11        -4.1560   -2.0763   -0.3295 C.2       1 <0>        -0.1058
     14 C12        -5.4275   -1.7792   -0.7148 C.2       1 <0>         0.0379
     15 N2         -5.3957   -1.2254   -1.9845 N.pl3     1 <0>        -0.4101
     16 C13        -4.0983   -1.1696   -2.4093 C.ar      1 <0>         0.3654
     17 N3         -3.5102   -0.7401   -3.5236 N.ar      1 <0>        -0.5633
     18 C14        -2.1981   -0.8102   -3.6649 C.ar      1 <0>         0.5776
     19 N4         -1.4036   -1.2985   -2.7215 N.ar      1 <0>        -0.6021
     20 N5         -1.6274   -0.3491   -4.8469 N.pl3     1 <0>        -0.3516
     21 C15        -2.2909    0.1904   -5.9093 C.cat     1 <0>         0.4261
     22 N6         -1.4465    0.5149   -6.8459 N.pl3     1 <0>        -0.4841
     23 C16        -0.1881    0.2083   -6.4531 C.ar      1 <0>         0.0861
     24 C17        -0.2813   -0.3467   -5.1615 C.ar      1 <0>         0.0293
     25 C18         0.8768   -0.7471   -4.5172 C.ar      1 <0>         0.1888
     26 N7          2.0476   -0.6061   -5.1079 N.ar      1 <0>        -0.4381
     27 C19         2.1707   -0.0870   -6.3175 C.ar      1 <0>         0.1350
     28 C20         1.0808    0.3286   -7.0300 C.ar      1 <0>        -0.1268
     29 C21        -6.5624   -0.7744   -2.7471 C.3       1 <0>         0.0637
     30 C22        -6.6361   -2.0084    0.0852 C.2       1 <0>         0.5836
     31 O1         -7.7107   -2.1592   -0.4655 O.2       1 <0>        -0.5246
     32 N8         -6.5560   -2.0519    1.4299 N.am      1 <0>        -0.5944
     33 C23        -5.3053   -1.7079    2.1231 C.3       1 <0>         0.0894
     34 C24        -5.6193   -0.6735    3.2092 C.3       1 <0>         0.0383
     35 N9         -6.6887   -1.1870    4.0755 N.3       1 <0>        -0.5425
     36 C25        -7.9361   -1.3812    3.3243 C.3       1 <0>         0.0385
     37 C26        -7.7188   -2.4387    2.2433 C.3       1 <0>         0.1174
     38 C27        -6.9013   -0.3034    5.2296 C.3       1 <0>         0.0232
     39 H2          2.0723   -0.9947   -0.5985 H         1 <0>         0.0789
     40 H3          0.5575   -0.1742   -1.0460 H         1 <0>         0.0631
     41 H4          0.7936   -0.7617    0.6175 H         1 <0>         0.0657
     42 H5         -0.2585   -2.9904    1.7120 H         1 <0>         0.1185
     43 H6          0.7305   -4.7726    3.0935 H         1 <0>         0.1277
     44 H7          2.5299   -6.1834    2.1797 H         1 <0>         0.1274
     45 H8          3.3397   -5.8125   -0.1159 H         1 <0>         0.1283
     46 H9          2.3449   -4.0357   -1.5004 H         1 <0>         0.1257
     47 H10        -1.4409   -2.5985    0.2292 H         1 <0>         0.4212
     48 H11        -3.8611   -2.5189    0.6104 H         1 <0>         0.1719
     49 H12        -3.3605    0.3283   -5.9656 H         1 <0>         0.2788
     50 H13         0.8214   -1.1761   -3.5276 H         1 <0>         0.1938
     51 H14         3.1539    0.0056   -6.7548 H         1 <0>         0.1913
     52 H15         1.1979    0.7517   -8.0167 H         1 <0>         0.1699
     53 H16        -6.8179    0.2434   -2.4523 H         1 <0>         0.0835
     54 H17        -6.3313   -0.7970   -3.8121 H         1 <0>         0.0947
     55 H18        -7.4061   -1.4340   -2.5444 H         1 <0>         0.1129
     56 H19        -4.8823   -2.6023    2.5806 H         1 <0>         0.0888
     57 H20        -4.5956   -1.2870    1.4108 H         1 <0>         0.1020
     58 H21        -4.7255   -0.4890    3.8051 H         1 <0>         0.0934
     59 H22        -5.9443    0.2565    2.7426 H         1 <0>         0.0400
     60 H23        -8.7224   -1.7099    4.0037 H         1 <0>         0.0960
     61 H24        -8.2288   -0.4414    2.8562 H         1 <0>         0.0410
     62 H25        -8.6040   -2.5008    1.6103 H         1 <0>         0.1026
     63 H26        -7.5323   -3.4047    2.7125 H         1 <0>         0.0862
     64 H27        -7.1818    0.6901    4.8797 H         1 <0>         0.0281
     65 H28        -7.6981   -0.7070    5.8543 H         1 <0>         0.0746
     66 H29        -5.9817   -0.2376    5.8111 H         1 <0>         0.0736
     67 H30        -1.6836    0.9156   -7.6969 H         1 <0>         0.4713
@<TRIPOS>BOND
     1    1    2 1
     2    1   39 1
     3    1   40 1
     4    1   41 1
     5    2    3 1
     6    2    4 1
     7    2   10 1
     8    4    9 ar
     9    4    5 ar
    10    5    6 ar
    11    5   42 1
    12    6    7 ar
    13    6   43 1
    14    7    8 ar
    15    7   44 1
    16    8    9 ar
    17    8   45 1
    18    9   46 1
    19   10   11 1
    20   10   47 1
    21   11   19 ar
    22   11   12 ar
    23   12   16 ar
    24   12   13 1
    25   13   14 2
    26   13   48 1
    27   14   15 1
    28   14   30 1
    29   15   16 1
    30   15   29 1
    31   16   17 ar
    32   17   18 ar
    33   18   19 ar
    34   18   20 1
    35   20   24 1
    36   20   21 1
    37   21   22 2
    38   21   49 1
    39   22   23 1
    40   22   67 1
    41   23   28 ar
    42   23   24 ar
    43   24   25 ar
    44   25   26 ar
    45   25   50 1
    46   26   27 ar
    47   27   28 ar
    48   27   51 1
    49   28   52 1
    50   29   53 1
    51   29   54 1
    52   29   55 1
    53   30   31 2
    54   30   32 am
    55   32   37 1
    56   32   33 1
    57   33   34 1
    58   33   56 1
    59   33   57 1
    60   34   35 1
    61   34   58 1
    62   34   59 1
    63   35   36 1
    64   35   38 1
    65   36   37 1
    66   36   60 1
    67   36   61 1
    68   37   62 1
    69   37   63 1
    70   38   64 1
    71   38   65 1
    72   38   66 1
@<TRIPOS>MOLECULE
CHEMBL233151__1
   68    73     0     0     0
SMALL
USER_CHARGES

@<TRIPOS>ATOM
      1 C1          0.9836   -0.8993   -0.4170 C.3       1 <0>        -0.1620
      2 C2          0.3824   -2.2547   -0.7943 C.3       1 <0>         0.1864
      3 H1          0.5902   -2.4650   -1.8435 H         1 <0>         0.1034
      4 C3          0.9934   -3.3319    0.0644 C.ar      1 <0>        -0.1087
      5 C4          0.5346   -3.5319    1.3530 C.ar      1 <0>        -0.1192
      6 C5          1.0951   -4.5199    2.1407 C.ar      1 <0>        -0.1131
      7 C6          2.1142   -5.3083    1.6397 C.ar      1 <0>        -0.1074
      8 C7          2.5724   -5.1088    0.3508 C.ar      1 <0>        -0.1076
      9 C8          2.0090   -4.1236   -0.4384 C.ar      1 <0>        -0.1013
     10 N1         -1.0665   -2.2229   -0.5804 N.pl3     1 <0>        -0.6679
     11 C9         -1.8986   -1.7288   -1.5641 C.ar      1 <0>         0.5462
     12 C10        -3.2952   -1.6850   -1.3731 C.ar      1 <0>        -0.2558
     13 C11        -4.1581   -2.0563   -0.3223 C.2       1 <0>        -0.1038
     14 C12        -5.4305   -1.7742   -0.7157 C.2       1 <0>         0.0182
     15 N2         -5.3982   -1.2327   -1.9907 N.pl3     1 <0>        -0.4100
     16 C13        -4.0996   -1.1699   -2.4107 C.ar      1 <0>         0.3794
     17 N3         -3.5105   -0.7462   -3.5267 N.ar      1 <0>        -0.5693
     18 C14        -2.1972   -0.8063   -3.6619 C.ar      1 <0>         0.5973
     19 N4         -1.4025   -1.2782   -2.7105 N.ar      1 <0>        -0.5992
     20 N5         -1.6256   -0.3520   -4.8461 N.pl3     1 <0>        -0.3594
     21 C15        -2.2892    0.1711   -5.9165 C.cat     1 <0>         0.4292
     22 N6         -1.4437    0.4937   -6.8528 N.pl3     1 <0>        -0.4798
     23 C16        -0.1844    0.2021   -6.4517 C.ar      1 <0>         0.0860
     24 C17        -0.2782   -0.3409   -5.1551 C.ar      1 <0>         0.0275
     25 C18         0.8806   -0.7248   -4.5021 C.ar      1 <0>         0.1861
     26 N7          2.0526   -0.5794   -5.0893 N.ar      1 <0>        -0.4349
     27 C19         2.1762   -0.0712   -6.3035 C.ar      1 <0>         0.1379
     28 C20         1.0858    0.3277   -7.0245 C.ar      1 <0>        -0.1224
     29 C21        -6.5656   -0.7995   -2.7626 C.3       1 <0>         0.0610
     30 C22        -6.6405   -2.0060    0.0815 C.2       1 <0>         0.5982
     31 O1         -7.7135   -2.1593   -0.4717 O.2       1 <0>        -0.4951
     32 N8         -6.5634   -2.0492    1.4263 N.am      1 <0>        -0.6197
     33 C23        -5.3143   -1.7064    2.1238 C.3       1 <0>         0.0602
     34 C24        -5.6349   -0.6858    3.2208 C.3       1 <0>        -0.0221
     35 N9         -6.6887   -1.2203    4.0925 N.4       1 <0>        -0.3865
     36 C25        -7.9328   -1.3847    3.3301 C.3       1 <0>        -0.0210
     37 C26        -7.7277   -2.4345    2.2387 C.3       1 <0>         0.0904
     38 C27        -6.9184   -0.2908    5.2066 C.3       1 <0>        -0.0484
     39 H2          2.0616   -0.9230   -0.5762 H         1 <0>         0.0821
     40 H3          0.5416   -0.1203   -1.0381 H         1 <0>         0.0634
     41 H4          0.7758   -0.6891    0.6322 H         1 <0>         0.0645
     42 H5         -0.2616   -2.9160    1.7444 H         1 <0>         0.1142
     43 H6          0.7371   -4.6757    3.1476 H         1 <0>         0.1263
     44 H7          2.5525   -6.0797    2.2554 H         1 <0>         0.1294
     45 H8          3.3688   -5.7245   -0.0405 H         1 <0>         0.1311
     46 H9          2.3644   -3.9703   -1.4466 H         1 <0>         0.1276
     47 H10        -1.4410   -2.5492    0.2528 H         1 <0>         0.4187
     48 H11        -3.8634   -2.4870    0.6233 H         1 <0>         0.1688
     49 H12        -3.3598    0.2991   -5.9786 H         1 <0>         0.2796
     50 H13         0.8247   -1.1443   -3.5085 H         1 <0>         0.1922
     51 H14         3.1604    0.0257   -6.7376 H         1 <0>         0.1939
     52 H15         1.2034    0.7421   -8.0149 H         1 <0>         0.1725
     53 H16        -6.8312    0.2188   -2.4789 H         1 <0>         0.0859
     54 H17        -6.3297   -0.8306   -3.8263 H         1 <0>         0.0997
     55 H18        -7.4043   -1.4646   -2.5569 H         1 <0>         0.1118
     56 H19        -4.8869   -2.6035    2.5717 H         1 <0>         0.1065
     57 H20        -4.6068   -1.2738    1.4165 H         1 <0>         0.1430
     58 H21        -4.7388   -0.4925    3.8104 H         1 <0>         0.1487
     59 H22        -5.9772    0.2430    2.7643 H         1 <0>         0.1348
     60 H23        -8.7300   -1.7064    4.0002 H         1 <0>         0.1508
     61 H24        -8.2055   -0.4348    2.8703 H         1 <0>         0.1353
     62 H25        -8.6150   -2.4831    1.6074 H         1 <0>         0.1416
     63 H26        -7.5481   -3.4064    2.6985 H         1 <0>         0.1041
     64 H27        -7.2275    0.6778    4.8138 H         1 <0>         0.1232
     65 H28        -7.7006   -0.6865    5.8545 H         1 <0>         0.1293
     66 H29        -5.9977   -0.1741    5.7781 H         1 <0>         0.1280
     67 H30        -1.6807    0.8839   -7.7087 H         1 <0>         0.4733
     68 H31        -6.3992   -2.1150    4.4583 H         1 <0>         0.4273
@<TRIPOS>BOND
     1    1    2 1
     2    1   39 1
     3    1   40 1
     4    1   41 1
     5    2    3 1
     6    2    4 1
     7    2   10 1
     8    4    9 ar
     9    4    5 ar
    10    5    6 ar
    11    5   42 1
    12    6    7 ar
    13    6   43 1
    14    7    8 ar
    15    7   44 1
    16    8    9 ar
    17    8   45 1
    18    9   46 1
    19   10   11 1
    20   10   47 1
    21   11   19 ar
    22   11   12 ar
    23   12   16 ar
    24   12   13 1
    25   13   14 2
    26   13   48 1
    27   14   15 1
    28   14   30 1
    29   15   16 1
    30   15   29 1
    31   16   17 ar
    32   17   18 ar
    33   18   19 ar
    34   18   20 1
    35   20   24 1
    36   20   21 1
    37   21   22 2
    38   21   49 1
    39   22   23 1
    40   22   67 1
    41   23   28 ar
    42   23   24 ar
    43   24   25 ar
    44   25   26 ar
    45   25   50 1
    46   26   27 ar
    47   27   28 ar
    48   27   51 1
    49   28   52 1
    50   29   53 1
    51   29   54 1
    52   29   55 1
    53   30   31 2
    54   30   32 am
    55   32   37 1
    56   32   33 1
    57   33   34 1
    58   33   56 1
    59   33   57 1
    60   34   35 1
    61   34   58 1
    62   34   59 1
    63   35   36 1
    64   35   38 1
    65   35   68 1
    66   36   37 1
    67   36   60 1
    68   36   61 1
    69   37   62 1
    70   37   63 1
    71   38   64 1
    72   38   65 1
    73   38   66 1
@<TRIPOS>MOLECULE
CHEMBL1077841
   53    56     0     0     0
SMALL
USER_CHARGES

@<TRIPOS>ATOM
      1 C1         -0.0316    1.3215    0.6220 C.ar      1 <0>        -0.0780
      2 C2          1.1462    2.0022    0.8375 C.ar      1 <0>        -0.0617
      3 C3          2.3667    1.3287    0.7542 C.ar      1 <0>        -0.1201
      4 C4          2.3917   -0.0346    0.4524 C.ar      1 <0>        -0.0898
      5 C5          1.2129   -0.7136    0.2372 C.ar      1 <0>        -0.0961
      6 C6         -0.0056   -0.0400    0.3206 C.ar      1 <0>        -0.0303
      7 C7         -1.2745   -0.7721    0.0888 C.ar      1 <0>         0.2539
      8 C8         -1.2617   -2.1375   -0.2081 C.ar      1 <0>        -0.2732
      9 C9         -2.4707   -2.7783   -0.4162 C.ar      1 <0>         0.1945
     10 N1         -3.5943   -2.0848   -0.3285 N.ar      1 <0>        -0.5547
     11 C10        -3.5765   -0.7902   -0.0453 C.ar      1 <0>         0.5673
     12 N2         -2.4430   -0.1399    0.1658 N.ar      1 <0>        -0.5588
     13 N3         -4.7751   -0.1011    0.0371 N.pl3     1 <0>        -0.6358
     14 C11        -5.9892   -0.7933   -0.0604 C.ar      1 <0>         0.1068
     15 C12        -6.1221   -2.0473    0.5212 C.ar      1 <0>        -0.0575
     16 C13        -7.3186   -2.7296    0.4251 C.ar      1 <0>        -0.1771
     17 C14        -8.3894   -2.1615   -0.2527 C.ar      1 <0>         0.2011
     18 C15        -8.2565   -0.9073   -0.8339 C.ar      1 <0>        -0.1774
     19 C16        -7.0614   -0.2230   -0.7337 C.ar      1 <0>        -0.0926
     20 N4         -9.6021   -2.8532   -0.3505 N.pl3     1 <0>        -0.6333
     21 C17        -9.7771   -4.1117    0.3761 C.3       1 <0>         0.1199
     22 C18       -10.8509   -3.9332    1.4555 C.3       1 <0>        -0.1030
     23 S1        -12.3885   -3.3780    0.6599 S.3       1 <0>        -0.2577
     24 C19       -11.8614   -1.9159   -0.2835 C.3       1 <0>        -0.1036
     25 C20       -10.6820   -2.3063   -1.1733 C.3       1 <0>         0.1201
     26 C21         3.6315    2.0585    0.9848 C.2       1 <0>         0.5671
     27 O1          3.6093    3.2452    1.2471 O.2       1 <0>        -0.5213
     28 N5          4.8092    1.4080    0.9043 N.am      1 <0>        -0.7282
     29 C22         6.0625    2.1313    1.1329 C.3       1 <0>         0.2200
     30 C23         7.1971    1.2045    0.9886 C.1       1 <0>         0.1890
     31 N6          8.0727    0.4894    0.8773 N.1       1 <0>        -0.3976
     32 H1         -0.9758    1.8413    0.6908 H         1 <0>         0.1450
     33 H2          1.1259    3.0566    1.0705 H         1 <0>         0.1445
     34 H3          3.3351   -0.5562    0.3874 H         1 <0>         0.1321
     35 H4          1.2320   -1.7678    0.0034 H         1 <0>         0.1383
     36 H5         -0.3301   -2.6800   -0.2741 H         1 <0>         0.1486
     37 H6         -2.4968   -3.8329   -0.6479 H         1 <0>         0.1726
     38 H7         -4.7739    0.8608    0.1623 H         1 <0>         0.4218
     39 H8         -5.2894   -2.4890    1.0483 H         1 <0>         0.1280
     40 H9         -7.4218   -3.7051    0.8768 H         1 <0>         0.1265
     41 H10        -9.0891   -0.4656   -1.3614 H         1 <0>         0.1274
     42 H11        -6.9593    0.7540   -1.1824 H         1 <0>         0.1249
     43 H12       -10.0866   -4.8925   -0.3187 H         1 <0>         0.0790
     44 H13        -8.8346   -4.3949    0.8446 H         1 <0>         0.0966
     45 H14       -11.0231   -4.8835    1.9609 H         1 <0>         0.1148
     46 H15       -10.5225   -3.1862    2.1781 H         1 <0>         0.0864
     47 H16       -12.6865   -1.5626   -0.9019 H         1 <0>         0.1151
     48 H17       -11.5533   -1.1284    0.4043 H         1 <0>         0.0864
     49 H18       -10.3232   -1.4247   -1.7045 H         1 <0>         0.0959
     50 H19       -11.0062   -3.0575   -1.8935 H         1 <0>         0.0789
     51 H20         4.8269    0.4611    0.6950 H         1 <0>         0.4072
     52 H21         6.1558    2.9361    0.4037 H         1 <0>         0.1192
     53 H22         6.0617    2.5508    2.1389 H         1 <0>         0.1192
@<TRIPOS>BOND
     1    1    6 ar
     2    1    2 ar
     3    1   32 1
     4    2    3 ar
     5    2   33 1
     6    3    4 ar
     7    3   26 1
     8    4    5 ar
     9    4   34 1
    10    5    6 ar
    11    5   35 1
    12    6    7 1
    13    7   12 ar
    14    7    8 ar
    15    8    9 ar
    16    8   36 1
    17    9   10 ar
    18    9   37 1
    19   10   11 ar
    20   11   12 ar
    21   11   13 1
    22   13   14 1
    23   13   38 1
    24   14   19 ar
    25   14   15 ar
    26   15   16 ar
    27   15   39 1
    28   16   17 ar
    29   16   40 1
    30   17   18 ar
    31   17   20 1
    32   18   19 ar
    33   18   41 1
    34   19   42 1
    35   20   25 1
    36   20   21 1
    37   21   22 1
    38   21   43 1
    39   21   44 1
    40   22   23 1
    41   22   45 1
    42   22   46 1
    43   23   24 1
    44   24   25 1
    45   24   47 1
    46   24   48 1
    47   25   49 1
    48   25   50 1
    49   26   27 2
    50   26   28 am
    51   28   29 1
    52   28   51 1
    53   29   30 1
    54   29   52 1
    55   29   53 1
    56   30   31 3
@<TRIPOS>MOLECULE
CHEMBL1078934
   58    61     0     0     0
SMALL
USER_CHARGES

@<TRIPOS>ATOM
      1 C1          0.5299   -1.1051   -2.8504 C.3       1 <0>        -0.0469
      2 N1          0.2825   -1.2795   -1.4129 N.4       1 <0>        -0.3838
      3 C2          1.1148   -2.3772   -0.9045 C.3       1 <0>        -0.0234
      4 C3          0.9438   -2.4854    0.6143 C.3       1 <0>         0.0999
      5 N2         -0.4901   -2.6218    0.9136 N.pl3     1 <0>        -0.6459
      6 C4         -1.4196   -1.6554    0.3083 C.3       1 <0>         0.1006
      7 C5         -1.1370   -1.5864   -1.1961 C.3       1 <0>        -0.0229
      8 C6         -0.9566   -3.6417    1.7507 C.ar      1 <0>         0.1774
      9 C7         -0.0783   -4.6073    2.2247 C.ar      1 <0>        -0.1627
     10 C8         -0.5386   -5.6135    3.0506 C.ar      1 <0>        -0.0655
     11 C9         -1.8799   -5.6599    3.4072 C.ar      1 <0>         0.1366
     12 C10        -2.7583   -4.6947    2.9329 C.ar      1 <0>        -0.1010
     13 C11        -2.2969   -3.6849    2.1120 C.ar      1 <0>        -0.1615
     14 N3         -2.3469   -6.6809    4.2451 N.pl3     1 <0>        -0.6397
     15 C12        -1.5354   -7.1755    5.2526 C.ar      1 <0>         0.5628
     16 N4         -0.3681   -6.5924    5.4863 N.ar      1 <0>        -0.5598
     17 C13         0.4353   -7.0347    6.4398 C.ar      1 <0>         0.1934
     18 C14         0.0464   -8.1232    7.2021 C.ar      1 <0>        -0.2650
     19 C15        -1.1891   -8.7169    6.9326 C.ar      1 <0>         0.2592
     20 N5         -1.9476   -8.2149    5.9607 N.ar      1 <0>        -0.5556
     21 C16        -1.6508   -9.8854    7.7205 C.ar      1 <0>        -0.0379
     22 C17        -0.8517  -10.3959    8.7434 C.ar      1 <0>        -0.0937
     23 C18        -1.2796  -11.4811    9.4757 C.ar      1 <0>        -0.0595
     24 C19        -2.5142  -12.0700    9.1941 C.ar      1 <0>        -0.1145
     25 C20        -3.3137  -11.5579    8.1702 C.ar      1 <0>        -0.0922
     26 C21        -2.8863  -10.4696    7.4421 C.ar      1 <0>        -0.0770
     27 C22        -2.9742  -13.2351    9.9793 C.2       1 <0>         0.5655
     28 O1         -2.2777  -13.6808   10.8703 O.2       1 <0>        -0.5194
     29 N6         -4.1657  -13.8031    9.7072 N.am      1 <0>        -0.7272
     30 C23        -4.6215  -14.9577   10.4853 C.3       1 <0>         0.2200
     31 C24        -5.9417  -15.3883    9.9968 C.1       1 <0>         0.1876
     32 N7         -6.9605  -15.7206    9.6198 N.1       1 <0>        -0.3956
     33 H1         -0.0815   -0.2852   -3.2274 H         1 <0>         0.1249
     34 H2          1.5834   -0.8772   -3.0127 H         1 <0>         0.1249
     35 H3          0.2714   -2.0234   -3.3776 H         1 <0>         0.1214
     36 H4          0.8080   -3.3127   -1.3724 H         1 <0>         0.1321
     37 H5          2.1606   -2.1791   -1.1393 H         1 <0>         0.1403
     38 H6          1.4795   -3.3606    0.9818 H         1 <0>         0.1266
     39 H7          1.3337   -1.5864    1.0917 H         1 <0>         0.0869
     40 H8         -2.4463   -1.9819    0.4735 H         1 <0>         0.1258
     41 H9         -1.2683   -0.6727    0.7548 H         1 <0>         0.0865
     42 H10        -1.7504   -0.8057   -1.6457 H         1 <0>         0.1402
     43 H11        -1.3756   -2.5458   -1.6551 H         1 <0>         0.1321
     44 H12         0.9648   -4.5713    1.9471 H         1 <0>         0.1249
     45 H13         0.1444   -6.3646    3.4190 H         1 <0>         0.1376
     46 H14        -3.8016   -4.7313    3.2097 H         1 <0>         0.1306
     47 H15        -2.9791   -2.9313    1.7473 H         1 <0>         0.1264
     48 H16        -3.2387   -7.0414    4.1198 H         1 <0>         0.4246
     49 H17         1.3843   -6.5522    6.6214 H         1 <0>         0.1749
     50 H18         0.6835   -8.5045    7.9864 H         1 <0>         0.1529
     51 H19         0.1030   -9.9404    8.9610 H         1 <0>         0.1400
     52 H20        -0.6605  -11.8767   10.2672 H         1 <0>         0.1475
     53 H21        -4.2686  -12.0126    7.9517 H         1 <0>         0.1321
     54 H22        -3.5062  -10.0711    6.6526 H         1 <0>         0.1427
     55 H23        -4.7215  -13.4474    8.9962 H         1 <0>         0.4071
     56 H24        -3.9088  -15.7749   10.3743 H         1 <0>         0.1200
     57 H25        -4.6959  -14.6807   11.5369 H         1 <0>         0.1201
     58 H26         0.5194   -0.4279   -0.9263 H         1 <0>         0.4246
@<TRIPOS>BOND
     1    1    2 1
     2    1   33 1
     3    1   34 1
     4    1   35 1
     5    2    7 1
     6    2    3 1
     7    2   58 1
     8    3    4 1
     9    3   36 1
    10    3   37 1
    11    4    5 1
    12    4   38 1
    13    4   39 1
    14    5    6 1
    15    5    8 1
    16    6    7 1
    17    6   40 1
    18    6   41 1
    19    7   42 1
    20    7   43 1
    21    8   13 ar
    22    8    9 ar
    23    9   10 ar
    24    9   44 1
    25   10   11 ar
    26   10   45 1
    27   11   12 ar
    28   11   14 1
    29   12   13 ar
    30   12   46 1
    31   13   47 1
    32   14   15 1
    33   14   48 1
    34   15   20 ar
    35   15   16 ar
    36   16   17 ar
    37   17   18 ar
    38   17   49 1
    39   18   19 ar
    40   18   50 1
    41   19   20 ar
    42   19   21 1
    43   21   26 ar
    44   21   22 ar
    45   22   23 ar
    46   22   51 1
    47   23   24 ar
    48   23   52 1
    49   24   25 ar
    50   24   27 1
    51   25   26 ar
    52   25   53 1
    53   26   54 1
    54   27   28 2
    55   27   29 am
    56   29   30 1
    57   29   55 1
    58   30   31 1
    59   30   56 1
    60   30   57 1
    61   31   32 3
@<TRIPOS>MOLECULE
CHEMBL1078934__1
   57    60     0     0     0
SMALL
USER_CHARGES

@<TRIPOS>ATOM
      1 C1          0.6782   -0.9792   -2.9114 C.3       1 <0>         0.0242
      2 N1          0.3700   -1.2683   -1.5045 N.3       1 <0>        -0.5426
      3 C2          1.2236   -2.3473   -0.9896 C.3       1 <0>         0.0382
      4 C3          1.0004   -2.4948    0.5193 C.3       1 <0>         0.1261
      5 N2         -0.4393   -2.6705    0.7635 N.pl3     1 <0>        -0.6321
      6 C4         -1.3702   -1.7032    0.1627 C.3       1 <0>         0.1266
      7 C5         -1.0536   -1.5869   -1.3321 C.3       1 <0>         0.0386
      8 C6         -0.9109   -3.7298    1.5473 C.ar      1 <0>         0.2089
      9 C7         -0.0278   -4.6939    2.0155 C.ar      1 <0>        -0.1805
     10 C8         -0.4932   -5.7389    2.7887 C.ar      1 <0>        -0.0587
     11 C9         -1.8441   -5.8259    3.0982 C.ar      1 <0>         0.1008
     12 C10        -2.7272   -4.8621    2.6296 C.ar      1 <0>        -0.0934
     13 C11        -2.2610   -3.8136    1.8615 C.ar      1 <0>        -0.1800
     14 N3         -2.3161   -6.8862    3.8827 N.pl3     1 <0>        -0.6340
     15 C12        -1.5275   -7.4008    4.8983 C.ar      1 <0>         0.5668
     16 N4         -0.3815   -6.8028    5.1920 N.ar      1 <0>        -0.5540
     17 C13         0.3996   -7.2633    6.1554 C.ar      1 <0>         0.1946
     18 C14         0.0096   -8.3867    6.8645 C.ar      1 <0>        -0.2730
     19 C15        -1.2033   -8.9953    6.5324 C.ar      1 <0>         0.2528
     20 N5         -1.9402   -8.4736    5.5543 N.ar      1 <0>        -0.5603
     21 C16        -1.6651  -10.2012    7.2619 C.ar      1 <0>        -0.0294
     22 C17        -0.8892  -10.7325    8.2919 C.ar      1 <0>        -0.0960
     23 C18        -1.3173  -11.8523    8.9699 C.ar      1 <0>        -0.0596
     24 C19        -2.5288  -12.4556    8.6260 C.ar      1 <0>        -0.1207
     25 C20        -3.3053  -11.9228    7.5948 C.ar      1 <0>        -0.0919
     26 C21        -2.8779  -10.8000    6.9212 C.ar      1 <0>        -0.0788
     27 C22        -2.9890  -13.6580    9.3528 C.2       1 <0>         0.5675
     28 O1         -2.3127  -14.1217   10.2500 O.2       1 <0>        -0.5221
     29 N6         -4.1584  -14.2399    9.0205 N.am      1 <0>        -0.7283
     30 C23        -4.6143  -15.4314    9.7407 C.3       1 <0>         0.2201
     31 C24        -5.9081  -15.8707    9.1930 C.1       1 <0>         0.1888
     32 N7         -6.9065  -16.2097    8.7703 N.1       1 <0>        -0.3976
     33 H1          0.0864   -0.1269   -3.2452 H         1 <0>         0.0706
     34 H2          1.7384   -0.7466   -3.0108 H         1 <0>         0.0703
     35 H3          0.4383   -1.8496   -3.5222 H         1 <0>         0.0257
     36 H4          0.9684   -3.2824   -1.4882 H         1 <0>         0.0383
     37 H5          2.2694   -2.1064   -1.1807 H         1 <0>         0.0856
     38 H6          1.5430   -3.3660    0.8863 H         1 <0>         0.0870
     39 H7          1.3519   -1.5987    1.0307 H         1 <0>         0.0699
     40 H8         -2.3949   -2.0511    0.2940 H         1 <0>         0.0861
     41 H9         -1.2466   -0.7311    0.6399 H         1 <0>         0.0696
     42 H10        -1.6595   -0.7945   -1.7716 H         1 <0>         0.0856
     43 H11        -1.2771   -2.5326   -1.8259 H         1 <0>         0.0383
     44 H12         1.0228   -4.6265    1.7746 H         1 <0>         0.1244
     45 H13         0.1935   -6.4889    3.1526 H         1 <0>         0.1304
     46 H14        -3.7779   -4.9302    2.8697 H         1 <0>         0.1232
     47 H15        -2.9470   -3.0612    1.5015 H         1 <0>         0.1256
     48 H16        -3.1953   -7.2600    3.7145 H         1 <0>         0.4209
     49 H17         1.3314   -6.7685    6.3861 H         1 <0>         0.1730
     50 H18         0.6286   -8.7835    7.6555 H         1 <0>         0.1493
     51 H19         0.0478  -10.2658    8.5578 H         1 <0>         0.1400
     52 H20        -0.7160  -12.2640    9.7670 H         1 <0>         0.1457
     53 H21        -4.2424  -12.3887    7.3281 H         1 <0>         0.1306
     54 H22        -3.4800  -10.3855    6.1262 H         1 <0>         0.1434
     55 H23        -4.6981  -13.8698    8.3045 H         1 <0>         0.4075
     56 H24        -3.8808  -16.2291    9.6244 H         1 <0>         0.1192
     57 H25        -4.7291  -15.1947   10.7985 H         1 <0>         0.1192
@<TRIPOS>BOND
     1    1    2 1
     2    1   33 1
     3    1   34 1
     4    1   35 1
     5    2    7 1
     6    2    3 1
     7    3    4 1
     8    3   36 1
     9    3   37 1
    10    4    5 1
    11    4   38 1
    12    4   39 1
    13    5    6 1
    14    5    8 1
    15    6    7 1
    16    6   40 1
    17    6   41 1
    18    7   42 1
    19    7   43 1
    20    8   13 ar
    21    8    9 ar
    22    9   10 ar
    23    9   44 1
    24   10   11 ar
    25   10   45 1
    26   11   12 ar
    27   11   14 1
    28   12   13 ar
    29   12   46 1
    30   13   47 1
    31   14   15 1
    32   14   48 1
    33   15   20 ar
    34   15   16 ar
    35   16   17 ar
    36   17   18 ar
    37   17   49 1
    38   18   19 ar
    39   18   50 1
    40   19   20 ar
    41   19   21 1
    42   21   26 ar
    43   21   22 ar
    44   22   23 ar
    45   22   51 1
    46   23   24 ar
    47   23   52 1
    48   24   25 ar
    49   24   27 1
    50   25   26 ar
    51   25   53 1
    52   26   54 1
    53   27   28 2
    54   27   29 am
    55   29   30 1
    56   29   55 1
    57   30   31 1
    58   30   56 1
    59   30   57 1
    60   31   32 3
@<TRIPOS>MOLECULE
CHEMBL1081443
   47    50     0     0     0
SMALL
USER_CHARGES

@<TRIPOS>ATOM
      1 C1          3.6395   -3.9472   -2.0623 C.3       1 <0>         0.0242
      2 O1          2.4440   -3.5783   -1.3718 O.3       1 <0>        -0.2979
      3 C2          1.8509   -2.4124   -1.7437 C.ar      1 <0>         0.1749
      4 C3          2.4056   -1.6444   -2.7554 C.ar      1 <0>        -0.2381
      5 C4          1.8000   -0.4544   -3.1356 C.ar      1 <0>         0.2432
      6 C5          0.6384   -0.0327   -2.5029 C.ar      1 <0>        -0.2617
      7 C6          0.0825   -0.7996   -1.4910 C.ar      1 <0>         0.1738
      8 C7          0.6852   -1.9936   -1.1135 C.ar      1 <0>         0.0128
      9 O2          0.1367   -2.7502   -0.1230 O.3       1 <0>        -0.3098
     10 C8          0.5683   -2.4822    1.2127 C.3       1 <0>         0.0340
     11 O3         -1.0553   -0.3863   -0.8713 O.3       1 <0>        -0.2976
     12 C9         -1.6236    0.8478   -1.3140 C.3       1 <0>         0.0231
     13 N1          2.3613    0.3211   -4.1573 N.pl3     1 <0>        -0.6145
     14 C10         3.0630   -0.2852   -5.1760 C.2       1 <0>         0.4893
     15 N2          3.1724   -1.5782   -5.3456 N.2       1 <0>        -0.5162
     16 C11         3.9348   -1.8103   -6.4495 C.ar      1 <0>         0.0499
     17 C12         4.3722   -2.9707   -7.0911 C.ar      1 <0>        -0.0624
     18 C13         5.1557   -2.8795   -8.2220 C.ar      1 <0>        -0.1105
     19 C14         5.5152   -1.6439   -8.7306 C.ar      1 <0>        -0.0887
     20 C15         5.0890   -0.4753   -8.1051 C.ar      1 <0>        -0.0132
     21 C16         4.2951   -0.5555   -6.9591 C.ar      1 <0>         0.0379
     22 O4          3.7311    0.3648   -6.1454 O.3       1 <0>        -0.1975
     23 C17         5.4763    0.8468   -8.6524 C.ar      1 <0>         0.1607
     24 C18         6.2648    0.9160   -9.7998 C.ar      1 <0>        -0.1589
     25 C19         6.6182    2.1573  -10.2987 C.ar      1 <0>        -0.0715
     26 C20         6.1713    3.2907   -9.6334 C.ar      1 <0>        -0.1720
     27 C21         5.3922    3.1489   -8.5004 C.ar      1 <0>         0.1053
     28 N3          5.0652    1.9548   -8.0491 N.ar      1 <0>        -0.4712
     29 H1          3.4267   -4.0531   -3.1261 H         1 <0>         0.0647
     30 H2          4.3953   -3.1751   -1.9182 H         1 <0>         0.0546
     31 H3          4.0084   -4.8946   -1.6694 H         1 <0>         0.1032
     32 H4          3.3094   -1.9716   -3.2479 H         1 <0>         0.1562
     33 H5          0.1681    0.8934   -2.7989 H         1 <0>         0.1406
     34 H6          0.0553   -3.1531    1.9018 H         1 <0>         0.0923
     35 H7          1.6444   -2.6399    1.2854 H         1 <0>         0.0439
     36 H8          0.3343   -1.4490    1.4696 H         1 <0>         0.0437
     37 H9         -1.8768    0.7726   -2.3715 H         1 <0>         0.0589
     38 H10        -2.5249    1.0599   -0.7388 H         1 <0>         0.1046
     39 H11        -0.9026    1.6524   -1.1694 H         1 <0>         0.0576
     40 H12         2.2560    1.2854   -4.1479 H         1 <0>         0.4302
     41 H13         4.0971   -3.9396   -6.7014 H         1 <0>         0.1390
     42 H14         5.4919   -3.7798   -8.7146 H         1 <0>         0.1431
     43 H15         6.1296   -1.5857   -9.6169 H         1 <0>         0.1440
     44 H16         6.5954    0.0135  -10.2923 H         1 <0>         0.1405
     45 H17         7.2284    2.2425  -11.1857 H         1 <0>         0.1394
     46 H18         6.4302    4.2740   -9.9974 H         1 <0>         0.1379
     47 H19         5.0430    4.0288   -7.9806 H         1 <0>         0.1583
@<TRIPOS>BOND
     1    1    2 1
     2    1   29 1
     3    1   30 1
     4    1   31 1
     5    2    3 1
     6    3    8 ar
     7    3    4 ar
     8    4    5 ar
     9    4   32 1
    10    5    6 ar
    11    5   13 1
    12    6    7 ar
    13    6   33 1
    14    7    8 ar
    15    7   11 1
    16    8    9 1
    17    9   10 1
    18   10   34 1
    19   10   35 1
    20   10   36 1
    21   11   12 1
    22   12   37 1
    23   12   38 1
    24   12   39 1
    25   13   14 1
    26   13   40 1
    27   14   22 1
    28   14   15 2
    29   15   16 1
    30   16   21 ar
    31   16   17 ar
    32   17   18 ar
    33   17   41 1
    34   18   19 ar
    35   18   42 1
    36   19   20 ar
    37   19   43 1
    38   20   21 ar
    39   20   23 1
    40   21   22 1
    41   23   28 ar
    42   23   24 ar
    43   24   25 ar
    44   24   44 1
    45   25   26 ar
    46   25   45 1
    47   26   27 ar
    48   26   46 1
    49   27   28 ar
    50   27   47 1
@<TRIPOS>MOLECULE
CHEMBL572878
   62    66     0     0     0
SMALL
USER_CHARGES

@<TRIPOS>ATOM
      1 C1          0.6605   -0.0459    2.1766 C.3       1 <0>        -0.0811
      2 C2          0.1518   -0.6678    0.9016 C.2       1 <0>         0.1060
      3 C3          0.5159   -1.9211    0.4021 C.2       1 <0>        -0.2723
      4 C4         -0.1582   -2.1174   -0.7646 C.2       1 <0>         0.3252
      5 N1         -0.9212   -1.0157   -0.9849 N.pl3     1 <0>        -0.4965
      6 H1         -1.5109   -0.8710   -1.7414 H         1 <0>         0.4336
      7 N2         -0.7096   -0.1283    0.0780 N.2       1 <0>        -0.2841
      8 N3         -0.0793   -3.2424   -1.5828 N.pl3     1 <0>        -0.6253
      9 C5         -0.1793   -3.1069   -2.9599 C.ar      1 <0>         0.4729
     10 C6         -0.2071   -1.8436   -3.5441 C.ar      1 <0>        -0.3733
     11 C7         -0.3078   -1.7563   -4.9296 C.ar      1 <0>         0.4788
     12 N4         -0.3738   -2.8761   -5.6461 N.ar      1 <0>        -0.5790
     13 C8         -0.3445   -4.0620   -5.0560 C.ar      1 <0>         0.3699
     14 N5         -0.2442   -4.1831   -3.7403 N.ar      1 <0>        -0.5789
     15 S1         -0.4352   -5.5160   -6.0470 S.3       1 <0>         0.1323
     16 C9         -0.2148   -6.8312   -4.8954 C.ar      1 <0>        -0.1671
     17 C10        -1.3214   -7.4679   -4.3477 C.ar      1 <0>        -0.0279
     18 C11        -1.1485   -8.4985   -3.4459 C.ar      1 <0>        -0.1571
     19 C12         0.1316   -8.8987   -3.0857 C.ar      1 <0>         0.1921
     20 C13         1.2381   -8.2621   -3.6327 C.ar      1 <0>        -0.1322
     21 C14         1.0657   -7.2356   -4.5393 C.ar      1 <0>        -0.0281
     22 N6          0.3069   -9.9445   -2.1700 N.am      1 <0>        -0.6744
     23 C15         1.3500   -9.9254   -1.3167 C.2       1 <0>         0.5469
     24 O1          2.0821   -8.9592   -1.2754 O.2       1 <0>        -0.5137
     25 C16         1.6067  -11.1045   -0.4140 C.3       1 <0>        -0.2024
     26 C17         1.3853  -10.9065    1.0869 C.3       1 <0>        -0.1493
     27 C18         2.8064  -11.0219    0.5320 C.3       1 <0>        -0.1425
     28 N7         -0.3395   -0.5195   -5.5549 N.pl3     1 <0>        -0.6162
     29 C19        -0.6634   -0.4031   -6.9851 C.3       1 <0>         0.1024
     30 C20        -1.7593    0.6550   -7.1504 C.3       1 <0>        -0.0226
     31 N8         -1.3254    1.9097   -6.5232 N.4       1 <0>        -0.3849
     32 C21        -1.1753    1.7192   -5.0750 C.3       1 <0>        -0.0216
     33 C22        -0.0561    0.7143   -4.8056 C.3       1 <0>         0.0987
     34 C23        -2.3271    2.9538   -6.7768 C.3       1 <0>        -0.0472
     35 H2          0.0118   -0.3321    3.0044 H         1 <0>         0.0842
     36 H3          1.6744   -0.3951    2.3719 H         1 <0>         0.0837
     37 H4          0.6632    1.0394    2.0755 H         1 <0>         0.0773
     38 H5          1.2093   -2.6111    0.8597 H         1 <0>         0.1576
     39 H6          0.0455   -4.1203   -1.1896 H         1 <0>         0.4366
     40 H7         -0.1523   -0.9523   -2.9366 H         1 <0>         0.1428
     41 H8         -2.3170   -7.1562   -4.6272 H         1 <0>         0.1352
     42 H9         -2.0088   -8.9934   -3.0201 H         1 <0>         0.1349
     43 H10         2.2335   -8.5733   -3.3522 H         1 <0>         0.1415
     44 H11         1.9262   -6.7438   -4.9683 H         1 <0>         0.1326
     45 H12        -0.3225  -10.6824   -2.1501 H         1 <0>         0.4170
     46 H13         1.3636  -12.0803   -0.8345 H         1 <0>         0.1304
     47 H14         1.0539   -9.9234    1.4214 H         1 <0>         0.1003
     48 H15         0.9962  -11.7521    1.6541 H         1 <0>         0.1098
     49 H16         3.3523  -11.9434    0.7341 H         1 <0>         0.1088
     50 H17         3.4100  -10.1148    0.5014 H         1 <0>         0.1096
     51 H18         0.2253   -0.0996   -7.5384 H         1 <0>         0.0928
     52 H19        -1.0213   -1.3625   -7.3589 H         1 <0>         0.1404
     53 H20        -1.9444    0.8239   -8.2112 H         1 <0>         0.1457
     54 H21        -2.6751    0.3074   -6.6723 H         1 <0>         0.1323
     55 H22        -0.9302    2.6724   -4.6065 H         1 <0>         0.1470
     56 H23        -2.1089    1.3395   -4.6597 H         1 <0>         0.1334
     57 H24        -0.0126    0.4934   -3.7391 H         1 <0>         0.1254
     58 H25         0.8950    1.1327   -5.1351 H         1 <0>         0.0984
     59 H26        -3.2849    2.6485   -6.3554 H         1 <0>         0.1218
     60 H27        -2.0062    3.8859   -6.3116 H         1 <0>         0.1260
     61 H28        -2.4336    3.1019   -7.8514 H         1 <0>         0.1269
     62 H29        -0.4408    2.1930   -6.9173 H         1 <0>         0.4262
@<TRIPOS>BOND
     1    1    2 1
     2    1   35 1
     3    1   36 1
     4    1   37 1
     5    2    7 2
     6    2    3 1
     7    3    4 2
     8    3   38 1
     9    4    5 1
    10    4    8 1
    11    5    6 1
    12    5    7 1
    13    8    9 1
    14    8   39 1
    15    9   14 ar
    16    9   10 ar
    17   10   11 ar
    18   10   40 1
    19   11   12 ar
    20   11   28 1
    21   12   13 ar
    22   13   14 ar
    23   13   15 1
    24   15   16 1
    25   16   21 ar
    26   16   17 ar
    27   17   18 ar
    28   17   41 1
    29   18   19 ar
    30   18   42 1
    31   19   20 ar
    32   19   22 1
    33   20   21 ar
    34   20   43 1
    35   21   44 1
    36   22   23 am
    37   22   45 1
    38   23   24 2
    39   23   25 1
    40   25   27 1
    41   25   26 1
    42   25   46 1
    43   26   27 1
    44   26   47 1
    45   26   48 1
    46   27   49 1
    47   27   50 1
    48   28   33 1
    49   28   29 1
    50   29   30 1
    51   29   51 1
    52   29   52 1
    53   30   31 1
    54   30   53 1
    55   30   54 1
    56   31   32 1
    57   31   34 1
    58   31   62 1
    59   32   33 1
    60   32   55 1
    61   32   56 1
    62   33   57 1
    63   33   58 1
    64   34   59 1
    65   34   60 1
    66   34   61 1
@<TRIPOS>MOLECULE
CHEMBL572878__1
   62    66     0     0     0
SMALL
USER_CHARGES

@<TRIPOS>ATOM
      1 C1         -0.0203   -0.4189   -2.7288 C.3       1 <0>        -0.1024
      2 C2         -0.0072   -0.8795   -1.2939 C.2       1 <0>         0.1306
      3 C3          0.0080   -2.1636   -0.8701 C.2       1 <0>        -0.2894
      4 C4          0.0168   -2.1537    0.5342 C.2       1 <0>         0.3349
      5 N1          0.0071   -0.9032    0.9320 N.2       1 <0>        -0.3401
      6 H1         -0.0077    0.8864   -0.2066 H         1 <0>         0.4405
      7 N2         -0.0027   -0.0836   -0.2039 N.pl3     1 <0>        -0.4741
      8 N3          0.0327   -3.2813    1.3649 N.pl3     1 <0>        -0.6092
      9 C5          0.1476   -3.1291    2.7387 C.ar      1 <0>         0.4608
     10 C6          0.1255   -1.8606    3.3120 C.ar      1 <0>        -0.3458
     11 C7          0.2440   -1.7562    4.6948 C.ar      1 <0>         0.4614
     12 N4          0.3737   -2.8652    5.4194 N.ar      1 <0>        -0.5791
     13 C8          0.3906   -4.0564    4.8397 C.ar      1 <0>         0.3615
     14 N5          0.2748   -4.1940    3.5268 N.ar      1 <0>        -0.5810
     15 S1          0.5650   -5.4957    5.8411 S.3       1 <0>         0.1206
     16 C9          0.3894   -6.8301    4.7039 C.ar      1 <0>        -0.1613
     17 C10         1.5165   -7.4193    4.1448 C.ar      1 <0>        -0.0287
     18 C11         1.3787   -8.4646    3.2539 C.ar      1 <0>        -0.1320
     19 C12         0.1135   -8.9270    2.9161 C.ar      1 <0>         0.1896
     20 C13        -1.0133   -8.3382    3.4749 C.ar      1 <0>        -0.1565
     21 C14        -0.8759   -7.2969    4.3705 C.ar      1 <0>        -0.0291
     22 N6         -0.0261   -9.9874    2.0111 N.am      1 <0>        -0.6751
     23 C15         0.8857  -10.9797    1.9898 C.2       1 <0>         0.5458
     24 O1          1.7696  -11.0090    2.8199 O.2       1 <0>        -0.5122
     25 C16         0.8070  -12.0528    0.9347 C.3       1 <0>        -0.2020
     26 C17         0.4357  -13.4655    1.3902 C.3       1 <0>        -0.1494
     27 C18         1.8713  -13.1517    0.9640 C.3       1 <0>        -0.1431
     28 N7          0.2277   -0.5137    5.3093 N.pl3     1 <0>        -0.6169
     29 C19         0.5721   -0.3690    6.7321 C.3       1 <0>         0.1034
     30 C20         1.6187    0.7419    6.8680 C.3       1 <0>        -0.0226
     31 N8          1.1133    1.9687    6.2389 N.4       1 <0>        -0.3850
     32 C21         0.9458    1.7581    4.7954 C.3       1 <0>        -0.0207
     33 C22        -0.1286    0.6983    4.5555 C.3       1 <0>         0.0987
     34 C23         2.0681    3.0619    6.4649 C.3       1 <0>        -0.0469
     35 H2         -1.0511   -0.3180   -3.0686 H         1 <0>         0.0891
     36 H3          0.4835    0.5446   -2.8057 H         1 <0>         0.0768
     37 H4          0.4971   -1.1501   -3.3498 H         1 <0>         0.0930
     38 H5          0.0127   -3.0410   -1.4997 H         1 <0>         0.1559
     39 H6         -0.0366   -4.1688    0.9794 H         1 <0>         0.4320
     40 H7          0.0194   -0.9783    2.6982 H         1 <0>         0.1873
     41 H8          2.5004   -7.0592    4.4069 H         1 <0>         0.1341
     42 H9          2.2548   -8.9226    2.8193 H         1 <0>         0.1397
     43 H10        -1.9971   -8.6977    3.2117 H         1 <0>         0.1338
     44 H11        -1.7520   -6.8419    4.8084 H         1 <0>         0.1331
     45 H12        -0.7791  -10.0075    1.3999 H         1 <0>         0.4156
     46 H13         0.4465  -11.7272   -0.0410 H         1 <0>         0.1293
     47 H14         0.2484  -13.6187    2.4530 H         1 <0>         0.1016
     48 H15        -0.1694  -14.0695    0.7141 H         1 <0>         0.1095
     49 H16         2.2106  -13.5492    0.0075 H         1 <0>         0.1082
     50 H17         2.6283  -13.0984    1.7463 H         1 <0>         0.1101
     51 H18        -0.3197   -0.1034    7.2997 H         1 <0>         0.0902
     52 H19         0.9826   -1.3067    7.1069 H         1 <0>         0.1389
     53 H20         1.8150    0.9291    7.9237 H         1 <0>         0.1439
     54 H21         2.5412    0.4344    6.3755 H         1 <0>         0.1318
     55 H22         0.6464    2.6941    4.3239 H         1 <0>         0.1434
     56 H23         1.8887    1.4198    4.3657 H         1 <0>         0.1329
     57 H24        -0.1812    0.4659    3.4919 H         1 <0>         0.1343
     58 H25        -1.0924    1.0735    4.8996 H         1 <0>         0.0934
     59 H26         3.0315    2.7990    6.0280 H         1 <0>         0.1212
     60 H27         1.6941    3.9733    5.9984 H         1 <0>         0.1247
     61 H28         2.1873    3.2246    7.5361 H         1 <0>         0.1260
     62 H29         0.2235    2.2127    6.6474 H         1 <0>         0.4252
@<TRIPOS>BOND
     1    1    2 1
     2    1   35 1
     3    1   36 1
     4    1   37 1
     5    2    3 2
     6    2    7 1
     7    3   38 1
     8    3    4 1
     9    4    8 1
    10    4    5 2
    11    5    7 1
    12    6    7 1
    13    8    9 1
    14    8   39 1
    15    9   14 ar
    16    9   10 ar
    17   10   11 ar
    18   10   40 1
    19   11   12 ar
    20   11   28 1
    21   12   13 ar
    22   13   14 ar
    23   13   15 1
    24   15   16 1
    25   16   21 ar
    26   16   17 ar
    27   17   18 ar
    28   17   41 1
    29   18   19 ar
    30   18   42 1
    31   19   20 ar
    32   19   22 1
    33   20   21 ar
    34   20   43 1
    35   21   44 1
    36   22   23 am
    37   22   45 1
    38   23   24 2
    39   23   25 1
    40   25   27 1
    41   25   26 1
    42   25   46 1
    43   26   27 1
    44   26   47 1
    45   26   48 1
    46   27   49 1
    47   27   50 1
    48   28   33 1
    49   28   29 1
    50   29   30 1
    51   29   51 1
    52   29   52 1
    53   30   31 1
    54   30   53 1
    55   30   54 1
    56   31   32 1
    57   31   34 1
    58   31   62 1
    59   32   33 1
    60   32   55 1
    61   32   56 1
    62   33   57 1
    63   33   58 1
    64   34   59 1
    65   34   60 1
    66   34   61 1
@<TRIPOS>MOLECULE
CHEMBL495727
   51    55     0     0     0
SMALL
USER_CHARGES

@<TRIPOS>ATOM
      1 C1         -0.0167    1.3832    0.0096 C.ar      1 <0>        -0.0900
      2 C2          1.1624    2.0986    0.0022 C.ar      1 <0>        -0.1093
      3 C3          2.3769    1.4282   -0.0129 C.ar      1 <0>         0.0585
      4 C4          2.4020    0.0222   -0.0207 C.ar      1 <0>         0.0556
      5 C5          1.1969   -0.6870   -0.0127 C.ar      1 <0>        -0.0377
      6 C6          0.0021   -0.0041    0.0020 C.ar      1 <0>        -0.0874
      7 C7         -1.2962   -0.7693    0.0108 C.3       1 <0>         0.0982
      8 N1         -1.7317   -1.0105   -1.3713 N.3       1 <0>        -0.5319
      9 C8         -2.0812    0.2506   -2.0413 C.3       1 <0>         0.0140
     10 C9         -2.4711   -0.0400   -3.4930 C.3       1 <0>         0.0628
     11 O1         -3.5484   -0.9803   -3.5128 O.3       1 <0>        -0.3858
     12 C10        -3.2423   -2.2203   -2.8694 C.3       1 <0>         0.0630
     13 C11        -2.8603   -1.9518   -1.4114 C.3       1 <0>         0.0170
     14 N2          3.7040   -0.3552   -0.0358 N.2       1 <0>        -0.4791
     15 C12         4.4709    0.7083   -0.0379 C.2       1 <0>         0.3677
     16 N3          3.6969    1.8375   -0.0241 N.pl3     1 <0>        -0.5827
     17 H1          4.0155    2.7537   -0.0227 H         1 <0>         0.4299
     18 C13         5.9482    0.6906   -0.0529 C.2       1 <0>         0.1128
     19 C14         6.7655   -0.4629   -0.0734 C.2       1 <0>         0.0625
     20 C15         8.0574   -0.0542   -0.0820 C.2       1 <0>         0.0467
     21 N4          8.0646    1.3049   -0.0675 N.pl3     1 <0>        -0.4518
     22 H2          8.8531    1.8699   -0.0696 H         1 <0>         0.4522
     23 N5          6.7361    1.7481   -0.0552 N.2       1 <0>        -0.2610
     24 N6          6.3179   -1.7953   -0.0825 N.am      1 <0>        -0.6484
     25 C16         7.2097   -2.8056   -0.1024 C.2       1 <0>         0.7112
     26 O2          8.4015   -2.5644   -0.1124 O.2       1 <0>        -0.5835
     27 N7          6.7806   -4.0832   -0.1111 N.am      1 <0>        -0.7107
     28 C17         7.7500   -5.1814   -0.1326 C.3       1 <0>         0.0984
     29 C18         7.4710   -6.3514   -1.0782 C.3       1 <0>        -0.1941
     30 C19         7.3013   -6.5309    0.4317 C.3       1 <0>        -0.1895
     31 H3         -0.9613    1.9065    0.0260 H         1 <0>         0.1292
     32 H4          1.1404    3.1784    0.0078 H         1 <0>         0.1265
     33 H5          1.2037   -1.7669   -0.0185 H         1 <0>         0.1329
     34 H6         -1.1522   -1.7232    0.5181 H         1 <0>         0.0877
     35 H7         -2.0559   -0.1898    0.5352 H         1 <0>         0.0478
     36 H8         -2.9207    0.7164   -1.5252 H         1 <0>         0.0435
     37 H9         -1.2233    0.9227   -2.0224 H         1 <0>         0.0909
     38 H10        -2.7857    0.8844   -3.9773 H         1 <0>         0.0978
     39 H11        -1.6147   -0.4564   -4.0234 H         1 <0>         0.0598
     40 H12        -4.1148   -2.8728   -2.9028 H         1 <0>         0.0988
     41 H13        -2.4084   -2.7001   -3.3817 H         1 <0>         0.0605
     42 H14        -2.5711   -2.8874   -0.9327 H         1 <0>         0.0882
     43 H15        -3.7122   -1.5212   -0.8852 H         1 <0>         0.0444
     44 H16         8.9269   -0.6946   -0.0972 H         1 <0>         0.2141
     45 H17         5.3672   -1.9876   -0.0745 H         1 <0>         0.4224
     46 H18         5.8299   -4.2755   -0.1031 H         1 <0>         0.4015
     47 H19         8.7902   -4.8932    0.0188 H         1 <0>         0.1414
     48 H20         6.5663   -6.3041   -1.6842 H         1 <0>         0.0976
     49 H21         8.3279   -6.8332   -1.5492 H         1 <0>         0.1039
     50 H22         8.0465   -7.1307    0.9541 H         1 <0>         0.1053
     51 H23         6.2849   -6.6016    0.8191 H         1 <0>         0.0980
@<TRIPOS>BOND
     1    1    6 ar
     2    1    2 ar
     3    1   31 1
     4    2    3 ar
     5    2   32 1
     6    3   16 1
     7    3    4 ar
     8    4    5 ar
     9    4   14 1
    10    5    6 ar
    11    5   33 1
    12    6    7 1
    13    7    8 1
    14    7   34 1
    15    7   35 1
    16    8   13 1
    17    8    9 1
    18    9   10 1
    19    9   36 1
    20    9   37 1
    21   10   11 1
    22   10   38 1
    23   10   39 1
    24   11   12 1
    25   12   13 1
    26   12   40 1
    27   12   41 1
    28   13   42 1
    29   13   43 1
    30   14   15 2
    31   15   16 1
    32   15   18 1
    33   16   17 1
    34   18   23 2
    35   18   19 1
    36   19   20 2
    37   19   24 1
    38   20   21 1
    39   20   44 1
    40   21   22 1
    41   21   23 1
    42   24   25 am
    43   24   45 1
    44   25   26 2
    45   25   27 am
    46   27   28 1
    47   27   46 1
    48   28   30 1
    49   28   29 1
    50   28   47 1
    51   29   30 1
    52   29   48 1
    53   29   49 1
    54   30   50 1
    55   30   51 1
@<TRIPOS>MOLECULE
CHEMBL495727__1
   51    55     0     0     0
SMALL
USER_CHARGES

@<TRIPOS>ATOM
      1 C1         -0.0167    1.3831    0.0096 C.ar      1 <0>        -0.0887
      2 C2          1.1627    2.0986    0.0022 C.ar      1 <0>        -0.1106
      3 C3          2.3770    1.4285   -0.0130 C.ar      1 <0>         0.0600
      4 C4          2.4023    0.0224   -0.0208 C.ar      1 <0>         0.0578
      5 C5          1.1970   -0.6870   -0.0135 C.ar      1 <0>        -0.0380
      6 C6          0.0021   -0.0041    0.0020 C.ar      1 <0>        -0.0853
      7 C7         -1.2962   -0.7693    0.0108 C.3       1 <0>         0.0974
      8 N1         -1.7318   -1.0105   -1.3712 N.3       1 <0>        -0.5319
      9 C8         -2.0813    0.2506   -2.0411 C.3       1 <0>         0.0140
     10 C9         -2.4713   -0.0400   -3.4928 C.3       1 <0>         0.0628
     11 O1         -3.5486   -0.9804   -3.5126 O.3       1 <0>        -0.3854
     12 C10        -3.2424   -2.2204   -2.8692 C.3       1 <0>         0.0629
     13 C11        -2.8603   -1.9518   -1.4112 C.3       1 <0>         0.0170
     14 N2          3.7036   -0.3562   -0.0353 N.2       1 <0>        -0.4774
     15 C12         4.4730    0.7087   -0.0369 C.2       1 <0>         0.3571
     16 N3          3.6973    1.8393   -0.0234 N.pl3     1 <0>        -0.5976
     17 H1          4.0152    2.7557   -0.0218 H         1 <0>         0.4231
     18 C13         5.9430    0.6909   -0.0506 C.2       1 <0>         0.0734
     19 C14         6.7538   -0.4319   -0.0644 C.2       1 <0>         0.1080
     20 C15         8.0822    0.0081   -0.0747 C.2       1 <0>         0.0527
     21 N4          8.0923    1.3163   -0.0678 N.2       1 <0>        -0.2437
     22 H2          6.4934    2.7109   -0.0552 H         1 <0>         0.4431
     23 N5          6.7718    1.7818   -0.0582 N.pl3     1 <0>        -0.4691
     24 N6          6.3226   -1.7651   -0.0670 N.am      1 <0>        -0.6478
     25 C16         7.2258   -2.7654   -0.0811 C.2       1 <0>         0.7127
     26 O2          8.4147   -2.5110   -0.0915 O.2       1 <0>        -0.5747
     27 N7          6.8111   -4.0478   -0.0836 N.am      1 <0>        -0.7097
     28 C17         7.7928   -5.1351   -0.0989 C.3       1 <0>         0.0977
     29 C18         7.5278   -6.3130   -1.0387 C.3       1 <0>        -0.1937
     30 C19         7.3589   -6.4867    0.4720 C.3       1 <0>        -0.1892
     31 H3         -0.9613    1.9064    0.0260 H         1 <0>         0.1301
     32 H4          1.1406    3.1784    0.0079 H         1 <0>         0.1265
     33 H5          1.2038   -1.7670   -0.0192 H         1 <0>         0.1340
     34 H6         -1.1522   -1.7232    0.5181 H         1 <0>         0.0882
     35 H7         -2.0559   -0.1899    0.5354 H         1 <0>         0.0484
     36 H8         -2.9208    0.7164   -1.5250 H         1 <0>         0.0438
     37 H9         -1.2234    0.9227   -2.0223 H         1 <0>         0.0903
     38 H10        -2.7860    0.8843   -3.9772 H         1 <0>         0.0980
     39 H11        -1.6149   -0.4564   -4.0233 H         1 <0>         0.0598
     40 H12        -4.1149   -2.8729   -2.9025 H         1 <0>         0.0993
     41 H13        -2.4086   -2.7001   -3.3816 H         1 <0>         0.0606
     42 H14        -2.5710   -2.8874   -0.9325 H         1 <0>         0.0885
     43 H15        -3.7123   -1.5212   -0.8850 H         1 <0>         0.0448
     44 H16         8.9552   -0.6276   -0.0862 H         1 <0>         0.2193
     45 H17         5.3741   -1.9682   -0.0587 H         1 <0>         0.4219
     46 H18         5.8626   -4.2508   -0.0753 H         1 <0>         0.4013
     47 H19         8.8296   -4.8345    0.0518 H         1 <0>         0.1426
     48 H20         6.6230   -6.2789   -1.6457 H         1 <0>         0.0975
     49 H21         8.3903   -6.7875   -1.5066 H         1 <0>         0.1044
     50 H22         8.1104   -7.0755    0.9980 H         1 <0>         0.1057
     51 H23         6.3431   -6.5669    0.8589 H         1 <0>         0.0979
@<TRIPOS>BOND
     1    1    6 ar
     2    1    2 ar
     3    1   31 1
     4    2    3 ar
     5    2   32 1
     6    3   16 1
     7    3    4 ar
     8    4    5 ar
     9    4   14 1
    10    5    6 ar
    11    5   33 1
    12    6    7 1
    13    7    8 1
    14    7   34 1
    15    7   35 1
    16    8   13 1
    17    8    9 1
    18    9   10 1
    19    9   36 1
    20    9   37 1
    21   10   11 1
    22   10   38 1
    23   10   39 1
    24   11   12 1
    25   12   13 1
    26   12   40 1
    27   12   41 1
    28   13   42 1
    29   13   43 1
    30   14   15 2
    31   15   16 1
    32   15   18 1
    33   16   17 1
    34   18   19 2
    35   18   23 1
    36   19   20 1
    37   19   24 1
    38   20   21 2
    39   20   44 1
    40   21   23 1
    41   22   23 1
    42   24   25 am
    43   24   45 1
    44   25   26 2
    45   25   27 am
    46   27   28 1
    47   27   46 1
    48   28   30 1
    49   28   29 1
    50   28   47 1
    51   29   30 1
    52   29   48 1
    53   29   49 1
    54   30   50 1
    55   30   51 1
@<TRIPOS>MOLECULE
CHEMBL604578
   38    41     0     0     0
SMALL
USER_CHARGES

@<TRIPOS>ATOM
      1 C1         -0.0167    1.3778    0.0096 C.ar      1 <0>        -0.1307
      2 C2          1.1717    2.0898    0.0021 C.ar      1 <0>        -0.0959
      3 C3          2.3851    1.4366   -0.0123 C.ar      1 <0>        -0.0990
      4 C4          2.4325    0.0389   -0.0201 C.ar      1 <0>         0.1528
      5 C5          1.2144   -0.6775   -0.0129 C.ar      1 <0>        -0.0928
      6 C6          0.0021   -0.0041    0.0020 C.ar      1 <0>        -0.0643
      7 C7          1.0554   -2.1457   -0.0192 C.ar      1 <0>         0.2742
      8 C8          2.0974   -3.0763   -0.0281 C.ar      1 <0>        -0.1960
      9 C9          3.5556   -2.8860   -0.0372 C.2       1 <0>        -0.1753
     10 C10         4.0842   -4.1322   -0.0422 C.2       1 <0>         0.1089
     11 N1          3.0733   -5.0602   -0.0381 N.pl3     1 <0>        -0.5592
     12 H1          3.2085   -6.0207   -0.0397 H         1 <0>         0.4291
     13 C11         1.8493   -4.4492   -0.0308 C.ar      1 <0>         0.3347
     14 N2          0.5677   -4.8182   -0.0270 N.ar      1 <0>        -0.5285
     15 C12        -0.3940   -3.9167   -0.0204 C.ar      1 <0>         0.3231
     16 N3         -0.1861   -2.6056   -0.0155 N.ar      1 <0>        -0.5304
     17 C13         4.2546   -1.5976   -0.0407 C.2       1 <0>         0.2894
     18 N4          3.7178   -0.4057   -0.0332 N.2       1 <0>        -0.5186
     19 C14         5.7605   -1.6533   -0.0534 C.3       1 <0>        -0.0853
     20 C15         6.3235   -0.2307   -0.0556 C.3       1 <0>        -0.0995
     21 C16         7.8524   -0.2872   -0.0685 C.3       1 <0>        -0.1245
     22 C17         8.4153    1.1354   -0.0706 C.3       1 <0>         0.0743
     23 O1          9.8433    1.0826   -0.0827 O.3       1 <0>        -0.5781
     24 H2         -0.9598    1.9038    0.0259 H         1 <0>         0.1305
     25 H3          1.1469    3.1695    0.0072 H         1 <0>         0.1299
     26 H4          3.3027    2.0061   -0.0179 H         1 <0>         0.1387
     27 H5         -0.9250   -0.5581    0.0077 H         1 <0>         0.1507
     28 H6          5.1397   -4.3610   -0.0488 H         1 <0>         0.1977
     29 H7         -1.4156   -4.2670   -0.0186 H         1 <0>         0.2038
     30 H8          6.1120   -2.1819    0.8327 H         1 <0>         0.0932
     31 H9          6.0971   -2.1786   -0.9472 H         1 <0>         0.0932
     32 H10         5.9719    0.2978   -0.9417 H         1 <0>         0.0727
     33 H11         5.9868    0.2946    0.8382 H         1 <0>         0.0727
     34 H12         8.2039   -0.8158    0.8176 H         1 <0>         0.0686
     35 H13         8.1890   -0.8125   -0.9623 H         1 <0>         0.0686
     36 H14         8.0638    1.6639   -0.9567 H         1 <0>         0.0455
     37 H15         8.0787    1.6607    0.8232 H         1 <0>         0.0456
     38 H16        10.2690    1.9508   -0.0847 H         1 <0>         0.3804
@<TRIPOS>BOND
     1    1    6 ar
     2    1    2 ar
     3    1   24 1
     4    2    3 ar
     5    2   25 1
     6    3    4 ar
     7    3   26 1
     8    4   18 1
     9    4    5 ar
    10    5    6 ar
    11    5    7 1
    12    6   27 1
    13    7   16 ar
    14    7    8 ar
    15    8   13 ar
    16    8    9 1
    17    9   10 2
    18    9   17 1
    19   10   11 1
    20   10   28 1
    21   11   12 1
    22   11   13 1
    23   13   14 ar
    24   14   15 ar
    25   15   16 ar
    26   15   29 1
    27   17   18 2
    28   17   19 1
    29   19   20 1
    30   19   30 1
    31   19   31 1
    32   20   21 1
    33   20   32 1
    34   20   33 1
    35   21   22 1
    36   21   34 1
    37   21   35 1
    38   22   23 1
    39   22   36 1
    40   22   37 1
    41   23   38 1
@<TRIPOS>MOLECULE
CHEMBL584052
   41    45     0     0     0
SMALL
USER_CHARGES

@<TRIPOS>ATOM
      1 C1         -0.6782    0.6053   -0.1986 C.ar      1 <0>        -0.1025
      2 C2          0.4227    1.3289    0.2276 C.ar      1 <0>        -0.0937
      3 C3          1.6511    0.7181    0.3214 C.ar      1 <0>        -0.1230
      4 C4          1.8141   -0.6372   -0.0035 C.ar      1 <0>         0.1585
      5 C5          0.7108   -1.3648   -0.4128 C.ar      1 <0>        -0.0376
      6 C6         -0.5383   -0.7243   -0.5166 C.ar      1 <0>        -0.0886
      7 C7          0.7219   -2.8016   -0.7359 C.ar      1 <0>         0.0554
      8 C8         -0.2653   -3.6217   -0.1581 C.ar      1 <0>        -0.1945
      9 C9         -0.3154   -4.9685   -0.4499 C.ar      1 <0>         0.1287
     10 N1          0.5290   -5.5678   -1.2740 N.ar      1 <0>        -0.4833
     11 C10         1.4877   -4.8458   -1.8466 C.ar      1 <0>         0.2913
     12 C11         1.6192   -3.4560   -1.5766 C.ar      1 <0>        -0.1281
     13 C12         2.7990   -3.0354   -2.3222 C.2       1 <0>        -0.1681
     14 C13         3.2599   -4.0946   -2.9932 C.2       1 <0>         0.0904
     15 N2          2.4709   -5.1875   -2.7258 N.pl3     1 <0>        -0.5779
     16 H1          2.5951   -6.0708   -3.1068 H         1 <0>         0.4262
     17 C14         3.3719   -1.6335   -2.2874 C.3       1 <0>         0.0118
     18 C15         3.9140   -1.4493   -0.8816 C.2       1 <0>         0.5438
     19 O1          5.0969   -1.6086   -0.6664 O.2       1 <0>        -0.5310
     20 N3          3.1054   -1.1158    0.1096 N.am      1 <0>        -0.6653
     21 C16         2.2900   -0.6218   -2.5651 C.ar      1 <0>        -0.0913
     22 C17         2.5015    0.7127   -2.2720 C.ar      1 <0>        -0.0880
     23 C18         1.5112    1.6421   -2.5252 C.ar      1 <0>        -0.1362
     24 C19         0.3040    1.2353   -3.0745 C.ar      1 <0>         0.1163
     25 C20         0.0945   -0.1043   -3.3682 C.ar      1 <0>        -0.1423
     26 C21         1.0899   -1.0289   -3.1179 C.ar      1 <0>        -0.0781
     27 O2         -0.6720    2.1476   -3.3242 O.3       1 <0>        -0.4989
     28 H2         -1.6438    1.0827   -0.2766 H         1 <0>         0.1276
     29 H3          0.3166    2.3721    0.4865 H         1 <0>         0.1265
     30 H4          2.5052    1.2914    0.6504 H         1 <0>         0.1261
     31 H5         -1.3984   -1.2853   -0.8510 H         1 <0>         0.1261
     32 H6         -0.9889   -3.1929    0.5194 H         1 <0>         0.1387
     33 H7         -1.0837   -5.5654    0.0187 H         1 <0>         0.1600
     34 H8          4.1206   -4.0924   -3.6456 H         1 <0>         0.1855
     35 H9          4.1760   -1.5370   -3.0168 H         1 <0>         0.1252
     36 H10         3.4546   -1.2173    1.0089 H         1 <0>         0.4033
     37 H11         3.4415    1.0289   -1.8443 H         1 <0>         0.1207
     38 H12         1.6766    2.6843   -2.2954 H         1 <0>         0.1265
     39 H13        -0.8445   -0.4234   -3.7958 H         1 <0>         0.1242
     40 H14         0.9289   -2.0713   -3.3504 H         1 <0>         0.1257
     41 H15        -0.6281    2.5386   -4.2075 H         1 <0>         0.3897
@<TRIPOS>BOND
     1    1    6 ar
     2    1    2 ar
     3    1   28 1
     4    2    3 ar
     5    2   29 1
     6    3    4 ar
     7    3   30 1
     8    4   20 1
     9    4    5 ar
    10    5    6 ar
    11    5    7 1
    12    6   31 1
    13    7   12 ar
    14    7    8 ar
    15    8    9 ar
    16    8   32 1
    17    9   10 ar
    18    9   33 1
    19   10   11 ar
    20   11   15 1
    21   11   12 ar
    22   12   13 1
    23   13   14 2
    24   13   17 1
    25   14   15 1
    26   14   34 1
    27   15   16 1
    28   17   18 1
    29   17   21 1
    30   17   35 1
    31   18   19 2
    32   18   20 am
    33   20   36 1
    34   21   26 ar
    35   21   22 ar
    36   22   23 ar
    37   22   37 1
    38   23   24 ar
    39   23   38 1
    40   24   25 ar
    41   24   27 1
    42   25   26 ar
    43   25   39 1
    44   26   40 1
    45   27   41 1
@<TRIPOS>MOLECULE
CHEMBL584052__1
   41    45     0     0     0
SMALL
USER_CHARGES

@<TRIPOS>ATOM
      1 C1          0.7509    2.1445    0.1537 C.ar      1 <0>        -0.1026
      2 C2          1.9382    2.7029    0.5964 C.ar      1 <0>        -0.0937
      3 C3          3.0703    1.9275    0.6852 C.ar      1 <0>        -0.1230
      4 C4          3.0500    0.5706    0.3281 C.ar      1 <0>         0.1585
      5 C5          1.8682    0.0167   -0.1306 C.ar      1 <0>        -0.0375
      6 C6          0.7135    0.8182   -0.2043 C.ar      1 <0>        -0.0886
      7 C7          1.7115   -1.3747   -0.5870 C.ar      1 <0>         0.0554
      8 C8          1.0704   -1.6031   -1.8191 C.ar      1 <0>        -0.1944
      9 C9          0.8736   -2.8884   -2.2781 C.ar      1 <0>         0.1286
     10 N1          1.2534   -3.9668   -1.6117 N.ar      1 <0>        -0.4832
     11 C10         1.8700   -3.8146   -0.4435 C.ar      1 <0>         0.2914
     12 C11         2.1312   -2.5205    0.0846 C.ar      1 <0>        -0.1281
     13 C12         2.8637   -2.7573    1.3224 C.2       1 <0>        -0.1681
     14 C13         2.9614   -4.0784    1.4954 C.2       1 <0>         0.0904
     15 N2          2.3536   -4.7258    0.4466 N.pl3     1 <0>        -0.5780
     16 H1          2.2795   -5.6885    0.3539 H         1 <0>         0.4262
     17 C14         3.4152   -1.6587    2.2075 C.3       1 <0>         0.0118
     18 C15         4.5281   -1.0088    1.4056 C.2       1 <0>         0.5437
     19 O1          5.6807   -1.3294    1.6052 O.2       1 <0>        -0.5311
     20 N3          4.2494   -0.0961    0.4909 N.am      1 <0>        -0.6653
     21 C16         2.3392   -0.6501    2.5173 C.ar      1 <0>        -0.0913
     22 C17         1.0120   -0.9657    2.2922 C.ar      1 <0>        -0.0780
     23 C18         0.0238   -0.0427    2.5749 C.ar      1 <0>        -0.1425
     24 C19         0.3640    1.2016    3.0855 C.ar      1 <0>         0.1162
     25 C20         1.6963    1.5156    3.3109 C.ar      1 <0>        -0.1360
     26 C21         2.6804    0.5872    3.0314 C.ar      1 <0>        -0.0882
     27 O2         -0.6063    2.1114    3.3640 O.3       1 <0>        -0.4989
     28 H2         -0.1430    2.7476    0.0943 H         1 <0>         0.1277
     29 H3          1.9751    3.7467    0.8713 H         1 <0>         0.1265
     30 H4          3.9909    2.3705    1.0355 H         1 <0>         0.1261
     31 H5         -0.2147    0.3849   -0.5466 H         1 <0>         0.1261
     32 H6          0.7297   -0.7652   -2.4093 H         1 <0>         0.1387
     33 H7          0.3834   -3.0220   -3.2312 H         1 <0>         0.1600
     34 H8          3.4436   -4.5632    2.3314 H         1 <0>         0.1855
     35 H9          3.8132   -2.0822    3.1297 H         1 <0>         0.1252
     36 H10         4.9599    0.1287   -0.1300 H         1 <0>         0.4033
     37 H11         0.7477   -1.9345    1.8947 H         1 <0>         0.1257
     38 H12        -1.0127   -0.2894    2.3982 H         1 <0>         0.1242
     39 H13         1.9637    2.4836    3.7083 H         1 <0>         0.1265
     40 H14         3.7175    0.8296    3.2109 H         1 <0>         0.1207
     41 H15        -0.9510    2.0553    4.2658 H         1 <0>         0.3898
@<TRIPOS>BOND
     1    1    6 ar
     2    1    2 ar
     3    1   28 1
     4    2    3 ar
     5    2   29 1
     6    3    4 ar
     7    3   30 1
     8    4   20 1
     9    4    5 ar
    10    5    6 ar
    11    5    7 1
    12    6   31 1
    13    7   12 ar
    14    7    8 ar
    15    8    9 ar
    16    8   32 1
    17    9   10 ar
    18    9   33 1
    19   10   11 ar
    20   11   15 1
    21   11   12 ar
    22   12   13 1
    23   13   14 2
    24   13   17 1
    25   14   15 1
    26   14   34 1
    27   15   16 1
    28   17   18 1
    29   17   21 1
    30   17   35 1
    31   18   19 2
    32   18   20 am
    33   20   36 1
    34   21   26 ar
    35   21   22 ar
    36   22   23 ar
    37   22   37 1
    38   23   24 ar
    39   23   38 1
    40   24   25 ar
    41   24   27 1
    42   25   26 ar
    43   25   39 1
    44   26   40 1
    45   27   41 1
@<TRIPOS>MOLECULE
CHEMBL603048
   36    40     0     0     0
SMALL
USER_CHARGES

@<TRIPOS>ATOM
      1 C1         -0.0186    1.3714   -0.1918 C.ar      1 <0>        -0.1243
      2 C2          1.1692    2.0825   -0.2536 C.ar      1 <0>        -0.0977
      3 C3          2.3828    1.4317   -0.2248 C.ar      1 <0>        -0.0922
      4 C4          2.4321    0.0354   -0.1325 C.ar      1 <0>         0.1468
      5 C5          1.2139   -0.6802   -0.0707 C.ar      1 <0>        -0.0853
      6 C6          0.0011   -0.0073   -0.1006 C.ar      1 <0>        -0.0659
      7 C7          1.0531   -2.1443    0.0279 C.ar      1 <0>         0.2725
      8 C8          2.0925   -3.0774    0.0829 C.ar      1 <0>        -0.1903
      9 C9          3.5499   -2.8941    0.0571 C.2       1 <0>        -0.1635
     10 C10         4.0746   -4.1363    0.1397 C.2       1 <0>         0.1165
     11 N1          3.0611   -5.0602    0.2124 N.pl3     1 <0>        -0.5571
     12 H1          3.1938   -6.0188    0.2791 H         1 <0>         0.4297
     13 C11         1.8392   -4.4463    0.1787 C.ar      1 <0>         0.3374
     14 N2          0.5565   -4.8096    0.2120 N.ar      1 <0>        -0.5263
     15 C12        -0.4021   -3.9064    0.1566 C.ar      1 <0>         0.3228
     16 N3         -0.1901   -2.5991    0.0672 N.ar      1 <0>        -0.5292
     17 C13         4.2562   -1.6045   -0.0403 C.2       1 <0>         0.3253
     18 N4          3.7150   -0.4050   -0.1174 N.2       1 <0>        -0.5007
     19 C14         5.7318   -1.6623   -0.0529 C.ar      1 <0>        -0.0579
     20 C15         6.4386   -1.2738   -1.1941 C.ar      1 <0>        -0.0510
     21 C16         7.8144   -1.3291   -1.2019 C.ar      1 <0>        -0.1393
     22 C17         8.5013   -1.7707   -0.0768 C.ar      1 <0>         0.1338
     23 C18         7.8039   -2.1585    1.0600 C.ar      1 <0>        -0.1379
     24 C19         6.4260   -2.1004    1.0789 C.ar      1 <0>        -0.0025
     25 Cl1         5.5550   -2.5773    2.5029 Cl        1 <0>        -0.0503
     26 O1          9.8579   -1.8234   -0.0894 O.3       1 <0>        -0.4931
     27 H2         -0.9622    1.8965   -0.2104 H         1 <0>         0.1320
     28 H3          1.1430    3.1598   -0.3257 H         1 <0>         0.1316
     29 H4          3.2997    2.0004   -0.2739 H         1 <0>         0.1402
     30 H5         -0.9257   -0.5598   -0.0527 H         1 <0>         0.1526
     31 H6          5.1295   -4.3674    0.1468 H         1 <0>         0.1903
     32 H7         -1.4249   -4.2520    0.1858 H         1 <0>         0.2041
     33 H8          5.9064   -0.9308   -2.0690 H         1 <0>         0.1419
     34 H9          8.3609   -1.0292   -2.0838 H         1 <0>         0.1423
     35 H10         8.3414   -2.5012    1.9318 H         1 <0>         0.1458
     36 H11        10.2859   -1.0099    0.2108 H         1 <0>         0.3988
@<TRIPOS>BOND
     1    1    6 ar
     2    1    2 ar
     3    1   27 1
     4    2    3 ar
     5    2   28 1
     6    3    4 ar
     7    3   29 1
     8    4   18 1
     9    4    5 ar
    10    5    6 ar
    11    5    7 1
    12    6   30 1
    13    7   16 ar
    14    7    8 ar
    15    8   13 ar
    16    8    9 1
    17    9   10 2
    18    9   17 1
    19   10   11 1
    20   10   31 1
    21   11   12 1
    22   11   13 1
    23   13   14 ar
    24   14   15 ar
    25   15   16 ar
    26   15   32 1
    27   17   18 2
    28   17   19 1
    29   19   24 ar
    30   19   20 ar
    31   20   21 ar
    32   20   33 1
    33   21   22 ar
    34   21   34 1
    35   22   23 ar
    36   22   26 1
    37   23   24 ar
    38   23   35 1
    39   24   25 1
    40   26   36 1
@<TRIPOS>MOLECULE
CHEMBL583030
   38    41     0     0     0
SMALL
USER_CHARGES

@<TRIPOS>ATOM
      1 C1         -0.0353    1.4272    0.0138 C.ar      1 <0>        -0.1739
      2 C2          1.1704    2.1122    0.0063 C.ar      1 <0>        -0.0534
      3 C3          2.3462    1.3781   -0.0135 C.ar      1 <0>        -0.1636
      4 C4          2.2782   -0.0024   -0.0250 C.ar      1 <0>         0.1219
      5 N1          1.1135   -0.6204   -0.0177 N.ar      1 <0>        -0.4848
      6 C5         -0.0248    0.0455    0.0015 C.ar      1 <0>         0.1081
      7 C6          3.6816    2.0764   -0.0229 C.3       1 <0>         0.1752
      8 N2          4.1303    2.2909    1.3551 N.pl3     1 <0>        -0.7120
      9 C7          5.3412    2.9204    1.6000 C.ar      1 <0>         0.4401
     10 C8          6.1350    3.3573    0.5445 C.ar      1 <0>        -0.2905
     11 C9          7.3457    3.9861    0.8452 C.ar      1 <0>         0.3045
     12 N3          7.6920    4.1425    2.1267 N.ar      1 <0>        -0.5804
     13 C10         6.9094    3.7132    3.0939 C.ar      1 <0>         0.3469
     14 N4          5.7580    3.1202    2.8492 N.ar      1 <0>        -0.5921
     15 C11         8.2281    4.4695   -0.2345 C.2       1 <0>        -0.2541
     16 C12         9.4186    5.2033   -0.0763 C.2       1 <0>         0.4264
     17 N5          9.9217    5.4488   -1.2660 N.2       1 <0>        -0.3722
     18 N6          9.0901    4.8917   -2.2437 N.pl3     1 <0>        -0.2933
     19 C13         8.0417    4.2789   -1.6118 C.2       1 <0>         0.3168
     20 N7          7.0911    3.6568   -2.3145 N.2       1 <0>        -0.4749
     21 C14         7.1413    3.6160   -3.6272 C.2       1 <0>         0.1941
     22 C15         8.1994    4.2282   -4.3102 C.2       1 <0>        -0.2378
     23 C16         9.1660    4.8685   -3.6046 C.2       1 <0>         0.1834
     24 N8          9.9718    5.6037    1.1390 N.pl3     1 <0>        -0.8151
     25 H1         -0.9706    1.9668    0.0336 H         1 <0>         0.1389
     26 H2          1.1929    3.1920    0.0152 H         1 <0>         0.1368
     27 H3          3.1896   -0.5816   -0.0404 H         1 <0>         0.1572
     28 H4         -0.9595   -0.4954    0.0076 H         1 <0>         0.1589
     29 H5          4.4100    1.4605   -0.5504 H         1 <0>         0.0804
     30 H6          3.5854    3.0378   -0.5275 H         1 <0>         0.0775
     31 H7          3.5802    1.9926    2.0962 H         1 <0>         0.4074
     32 H8          5.8239    3.2140   -0.4797 H         1 <0>         0.1555
     33 H9          7.2182    3.8545    4.1191 H         1 <0>         0.1947
     34 H10         6.3648    3.1086   -4.1805 H         1 <0>         0.1840
     35 H11         8.2429    4.1960   -5.3888 H         1 <0>         0.1717
     36 H12         9.9903    5.3448   -4.1145 H         1 <0>         0.1839
     37 H13         9.5699    5.3151    1.9734 H         1 <0>         0.4289
     38 H14        10.7586    6.1710    1.1504 H         1 <0>         0.4050
@<TRIPOS>BOND
     1    1    6 ar
     2    1    2 ar
     3    1   25 1
     4    2    3 ar
     5    2   26 1
     6    3    4 ar
     7    3    7 1
     8    4    5 ar
     9    4   27 1
    10    5    6 ar
    11    6   28 1
    12    7    8 1
    13    7   29 1
    14    7   30 1
    15    8    9 1
    16    8   31 1
    17    9   14 ar
    18    9   10 ar
    19   10   11 ar
    20   10   32 1
    21   11   12 ar
    22   11   15 1
    23   12   13 ar
    24   13   14 ar
    25   13   33 1
    26   15   19 2
    27   15   16 1
    28   16   17 2
    29   16   24 1
    30   17   18 1
    31   18   23 1
    32   18   19 1
    33   19   20 1
    34   20   21 2
    35   21   22 1
    36   21   34 1
    37   22   23 2
    38   22   35 1
    39   23   36 1
    40   24   37 1
    41   24   38 1
@<TRIPOS>MOLECULE
CHEMBL376885
   53    57     0     0     0
SMALL
USER_CHARGES

@<TRIPOS>ATOM
      1 C1         -1.4627    2.0704    0.8904 C.3       1 <0>        -0.0486
      2 N1         -1.0805    0.6588    0.7521 N.4       1 <0>        -0.3865
      3 C2         -2.2869   -0.1571    0.5652 C.3       1 <0>        -0.0227
      4 C3         -1.8831   -1.6124    0.3065 C.3       1 <0>         0.0956
      5 N2         -1.0135   -2.0575    1.4063 N.pl3     1 <0>        -0.6088
      6 C4          0.1325   -1.2100    1.7704 C.3       1 <0>         0.0990
      7 C5         -0.3664    0.2263    1.9600 C.3       1 <0>        -0.0233
      8 C6         -1.2664   -3.2423    2.0802 C.ar      1 <0>         0.5017
      9 C7         -2.2862   -4.0904    1.6575 C.ar      1 <0>        -0.3304
     10 C8         -2.5025   -5.2690    2.3651 C.ar      1 <0>         0.5024
     11 N3         -1.7321   -5.5443    3.4156 N.ar      1 <0>        -0.5832
     12 C9         -0.7720   -4.7140    3.7881 C.ar      1 <0>         0.6018
     13 N4         -0.5339   -3.5870    3.1366 N.ar      1 <0>        -0.6110
     14 N5          0.0127   -5.0371    4.8922 N.pl3     1 <0>        -0.3631
     15 C10         1.1099   -4.3574    5.3319 C.cat     1 <0>         0.4259
     16 N6          1.6005   -4.9364    6.3900 N.pl3     1 <0>        -0.4766
     17 C11         0.8567   -6.0230    6.7025 C.ar      1 <0>         0.0857
     18 C12        -0.1788   -6.1035    5.7506 C.ar      1 <0>         0.0235
     19 C13        -1.0985   -7.1342    5.8439 C.ar      1 <0>         0.1759
     20 N7         -1.0036   -8.0226    6.8141 N.ar      1 <0>        -0.4291
     21 C14        -0.0467   -7.9744    7.7250 C.ar      1 <0>         0.1405
     22 C15         0.9089   -6.9974    7.7052 C.ar      1 <0>        -0.1220
     23 N8         -3.5074   -6.1449    1.9815 N.pl3     1 <0>        -0.6238
     24 C16        -3.6667   -7.3626    2.6507 C.ar      1 <0>         0.1432
     25 C17        -2.5601   -8.0207    3.1712 C.ar      1 <0>        -0.1237
     26 C18        -2.7207   -9.2231    3.8314 C.ar      1 <0>        -0.0907
     27 C19        -3.9817   -9.7725    3.9749 C.ar      1 <0>        -0.1020
     28 C20        -5.0862   -9.1205    3.4582 C.ar      1 <0>        -0.0804
     29 C21        -4.9336   -7.9141    2.8013 C.ar      1 <0>        -0.0580
     30 Cl1        -6.3214   -7.0921    2.1594 Cl        1 <0>        -0.0528
     31 H1         -0.5673    2.6781    1.0212 H         1 <0>         0.1291
     32 H2         -1.9929    2.3928   -0.0057 H         1 <0>         0.1298
     33 H3         -2.1115    2.1878    1.7584 H         1 <0>         0.1235
     34 H4         -2.9035   -0.1050    1.4625 H         1 <0>         0.1358
     35 H5         -2.8524    0.2202   -0.2869 H         1 <0>         0.1520
     36 H6         -2.7745   -2.2385    0.2681 H         1 <0>         0.1335
     37 H7         -1.3432   -1.6803   -0.6379 H         1 <0>         0.1077
     38 H8          0.5738   -1.5702    2.6998 H         1 <0>         0.1356
     39 H9          0.8760   -1.2374    0.9738 H         1 <0>         0.1002
     40 H10         0.4833    0.8859    2.1357 H         1 <0>         0.1482
     41 H11        -1.0411    0.2668    2.8151 H         1 <0>         0.1336
     42 H12        -2.8950   -3.8396    0.8015 H         1 <0>         0.1629
     43 H13         1.5135   -3.4686    4.8697 H         1 <0>         0.2777
     44 H14        -1.8965   -7.2107    5.1201 H         1 <0>         0.1982
     45 H15        -0.0155   -8.7277    8.4983 H         1 <0>         0.1959
     46 H16         1.6833   -6.9708    8.4575 H         1 <0>         0.1739
     47 H17        -4.0996   -5.9128    1.2492 H         1 <0>         0.4335
     48 H18        -1.5748   -7.5929    3.0594 H         1 <0>         0.1395
     49 H19        -1.8602   -9.7353    4.2360 H         1 <0>         0.1380
     50 H20        -4.1041  -10.7130    4.4914 H         1 <0>         0.1442
     51 H21        -6.0696   -9.5522    3.5719 H         1 <0>         0.1471
     52 H22         2.3814   -4.6347    6.8801 H         1 <0>         0.4736
     53 H23        -0.4776    0.5519   -0.0499 H         1 <0>         0.4281
@<TRIPOS>BOND
     1    1    2 1
     2    1   31 1
     3    1   32 1
     4    1   33 1
     5    2    7 1
     6    2    3 1
     7    2   53 1
     8    3    4 1
     9    3   34 1
    10    3   35 1
    11    4    5 1
    12    4   36 1
    13    4   37 1
    14    5    6 1
    15    5    8 1
    16    6    7 1
    17    6   38 1
    18    6   39 1
    19    7   40 1
    20    7   41 1
    21    8   13 ar
    22    8    9 ar
    23    9   10 ar
    24    9   42 1
    25   10   11 ar
    26   10   23 1
    27   11   12 ar
    28   12   13 ar
    29   12   14 1
    30   14   18 1
    31   14   15 1
    32   15   16 2
    33   15   43 1
    34   16   17 1
    35   16   52 1
    36   17   22 ar
    37   17   18 ar
    38   18   19 ar
    39   19   20 ar
    40   19   44 1
    41   20   21 ar
    42   21   22 ar
    43   21   45 1
    44   22   46 1
    45   23   24 1
    46   23   47 1
    47   24   29 ar
    48   24   25 ar
    49   25   26 ar
    50   25   48 1
    51   26   27 ar
    52   26   49 1
    53   27   28 ar
    54   27   50 1
    55   28   29 ar
    56   28   51 1
    57   29   30 1
@<TRIPOS>MOLECULE
CHEMBL376885__1
   52    56     0     0     0
SMALL
USER_CHARGES

@<TRIPOS>ATOM
      1 C1         -1.5047    2.0117    0.8645 C.3       1 <0>         0.0229
      2 N1         -1.1225    0.5991    0.7364 N.3       1 <0>        -0.5429
      3 C2         -2.2945   -0.2397    0.4520 C.3       1 <0>         0.0372
      4 C3         -1.8337   -1.6690    0.1472 C.3       1 <0>         0.1193
      5 N2         -0.9904   -2.1349    1.2585 N.pl3     1 <0>        -0.5798
      6 C4          0.1246   -1.2793    1.6922 C.3       1 <0>         0.1228
      7 C5         -0.4133    0.1347    1.9361 C.3       1 <0>         0.0371
      8 C6         -1.2400   -3.3481    1.8810 C.ar      1 <0>         0.5034
      9 C7         -2.2274   -4.2005    1.3947 C.ar      1 <0>        -0.3337
     10 C8         -2.4417   -5.4081    2.0523 C.ar      1 <0>         0.4944
     11 N3         -1.7003   -5.7059    3.1174 N.ar      1 <0>        -0.5966
     12 C9         -0.7705   -4.8707    3.5510 C.ar      1 <0>         0.5878
     13 N4         -0.5352   -3.7163    2.9483 N.ar      1 <0>        -0.6075
     14 N5         -0.0156   -5.2179    4.6684 N.pl3     1 <0>        -0.3561
     15 C10         1.0522   -4.5328    5.1683 C.cat     1 <0>         0.4288
     16 N6          1.5202   -5.1400    6.2209 N.pl3     1 <0>        -0.4830
     17 C11         0.7897   -6.2518    6.4696 C.ar      1 <0>         0.0859
     18 C12        -0.2123   -6.3184    5.4815 C.ar      1 <0>         0.0263
     19 C13        -1.1126   -7.3698    5.5073 C.ar      1 <0>         0.1781
     20 N7         -1.0306   -8.2908    6.4479 N.ar      1 <0>        -0.4345
     21 C14        -0.1051   -8.2566    7.3913 C.ar      1 <0>         0.1349
     22 C15         0.8298   -7.2607    7.4381 C.ar      1 <0>        -0.1268
     23 N8         -3.4148   -6.2894    1.6045 N.pl3     1 <0>        -0.6343
     24 C16        -3.5701   -7.5335    2.2242 C.ar      1 <0>         0.1586
     25 C17        -2.4673   -8.1879    2.7575 C.ar      1 <0>        -0.1267
     26 C18        -2.6239   -9.4164    3.3688 C.ar      1 <0>        -0.0905
     27 C19        -3.8771   -9.9956    3.4506 C.ar      1 <0>        -0.1117
     28 C20        -4.9777   -9.3475    2.9210 C.ar      1 <0>        -0.0817
     29 C21        -4.8292   -8.1152    2.3128 C.ar      1 <0>        -0.0639
     30 Cl1        -6.2125   -7.2983    1.6548 Cl        1 <0>        -0.0559
     31 H1         -0.6099    2.6195    0.9987 H         1 <0>         0.0752
     32 H2         -2.0280    2.3298   -0.0372 H         1 <0>         0.0755
     33 H3         -2.1598    2.1341    1.7270 H         1 <0>         0.0290
     34 H4         -2.9551   -0.2475    1.3189 H         1 <0>         0.0422
     35 H5         -2.8287    0.1617   -0.4092 H         1 <0>         0.0983
     36 H6         -2.7020   -2.3204    0.0485 H         1 <0>         0.0949
     37 H7         -1.2580   -1.6786   -0.7783 H         1 <0>         0.0922
     38 H8          0.5509   -1.6731    2.6148 H         1 <0>         0.0976
     39 H9          0.8885   -1.2515    0.9151 H         1 <0>         0.0843
     40 H10         0.4168    0.8075    2.1512 H         1 <0>         0.0942
     41 H11        -1.1002    0.1216    2.7824 H         1 <0>         0.0398
     42 H12        -2.8131   -3.9311    0.5283 H         1 <0>         0.1614
     43 H13         1.4517   -3.6200    4.7517 H         1 <0>         0.2792
     44 H14        -1.8848   -7.4360    4.7551 H         1 <0>         0.1994
     45 H15        -0.0832   -9.0367    8.1379 H         1 <0>         0.1920
     46 H16         1.5785   -7.2459    8.2163 H         1 <0>         0.1703
     47 H17        -3.9877   -6.0428    0.8616 H         1 <0>         0.4318
     48 H18        -1.4881   -7.7367    2.6939 H         1 <0>         0.1411
     49 H19        -1.7664   -9.9257    3.7833 H         1 <0>         0.1350
     50 H20        -3.9963  -10.9565    3.9289 H         1 <0>         0.1399
     51 H21        -5.9550   -9.8026    2.9865 H         1 <0>         0.1432
     52 H22         2.2781   -4.8408    6.7471 H         1 <0>         0.4716
@<TRIPOS>BOND
     1    1    2 1
     2    1   31 1
     3    1   32 1
     4    1   33 1
     5    2    7 1
     6    2    3 1
     7    3    4 1
     8    3   34 1
     9    3   35 1
    10    4    5 1
    11    4   36 1
    12    4   37 1
    13    5    6 1
    14    5    8 1
    15    6    7 1
    16    6   38 1
    17    6   39 1
    18    7   40 1
    19    7   41 1
    20    8   13 ar
    21    8    9 ar
    22    9   10 ar
    23    9   42 1
    24   10   11 ar
    25   10   23 1
    26   11   12 ar
    27   12   13 ar
    28   12   14 1
    29   14   18 1
    30   14   15 1
    31   15   16 2
    32   15   43 1
    33   16   17 1
    34   16   52 1
    35   17   22 ar
    36   17   18 ar
    37   18   19 ar
    38   19   20 ar
    39   19   44 1
    40   20   21 ar
    41   21   22 ar
    42   21   45 1
    43   22   46 1
    44   23   24 1
    45   23   47 1
    46   24   29 ar
    47   24   25 ar
    48   25   26 ar
    49   25   48 1
    50   26   27 ar
    51   26   49 1
    52   27   28 ar
    53   27   50 1
    54   28   29 ar
    55   28   51 1
    56   29   30 1
@<TRIPOS>MOLECULE
CHEMBL221912
   39    41     0     0     0
SMALL
USER_CHARGES

@<TRIPOS>ATOM
      1 C1         -0.0187    1.5258    0.0104 C.3       1 <0>        -0.1682
      2 C2          0.0021   -0.0041    0.0020 C.3       1 <0>         0.1519
      3 H1          0.5123   -0.3556   -0.8948 H         1 <0>         0.0999
      4 C3          0.7421   -0.5109    1.2415 C.3       1 <0>         0.0503
      5 O1          0.1431    0.0444    2.4141 O.3       1 <0>        -0.3878
      6 C4          0.7626   -0.3678    3.6341 C.3       1 <0>         0.0307
      7 N1         -1.3723   -0.5112    0.0124 N.pl3     1 <0>        -0.6949
      8 C5         -2.0698   -0.6464   -1.1769 C.ar      1 <0>         0.4747
      9 C6         -1.4706   -0.3078   -2.3925 C.ar      1 <0>        -0.3080
     10 C7         -2.2044   -0.4591   -3.5526 C.ar      1 <0>         0.2098
     11 N2         -3.4455   -0.9174   -3.4791 N.ar      1 <0>        -0.5732
     12 C8         -3.9876   -1.2304   -2.3130 C.ar      1 <0>         0.5853
     13 N3         -3.3170   -1.1054   -1.1789 N.ar      1 <0>        -0.5939
     14 N4         -5.2948   -1.7088   -2.2791 N.pl3     1 <0>        -0.4247
     15 C9         -5.9966   -2.0680   -1.1668 C.2       1 <0>         0.3112
     16 N5         -7.1885   -2.4696   -1.5006 N.2       1 <0>        -0.4808
     17 C10        -7.3377   -2.3975   -2.8471 C.ar      1 <0>         0.0794
     18 C11        -6.1277   -1.9032   -3.3683 C.ar      1 <0>         0.0514
     19 C12        -5.9862   -1.7166   -4.7315 C.ar      1 <0>        -0.0285
     20 C13        -7.0498   -2.0185   -5.5817 C.ar      1 <0>        -0.0190
     21 C14        -8.2531   -2.5076   -5.0556 C.ar      1 <0>        -0.0743
     22 C15        -8.3939   -2.6998   -3.7139 C.ar      1 <0>        -0.0656
     23 C16        -6.9122   -1.8280   -6.9943 C.1       1 <0>         0.2580
     24 N6         -6.8031   -1.6769   -8.1149 N.1       1 <0>        -0.4115
     25 H2          1.0039    1.9031    0.0027 H         1 <0>         0.0708
     26 H3         -0.5459    1.8868   -0.8726 H         1 <0>         0.0605
     27 H4         -0.5289    1.8773    0.9072 H         1 <0>         0.0731
     28 H5          0.6803   -1.5984    1.2822 H         1 <0>         0.0600
     29 H6          1.7879   -0.2080    1.1895 H         1 <0>         0.0716
     30 H7          0.7013   -1.4523    3.7244 H         1 <0>         0.0436
     31 H8          1.8089   -0.0620    3.6317 H         1 <0>         0.0444
     32 H9          0.2503    0.0965    4.4767 H         1 <0>         0.0898
     33 H10        -1.7940   -0.7522    0.8520 H         1 <0>         0.4153
     34 H11        -0.4571    0.0641   -2.4243 H         1 <0>         0.1512
     35 H12        -1.7715   -0.2063   -4.5092 H         1 <0>         0.1785
     36 H13        -5.6183   -2.0258   -0.1561 H         1 <0>         0.2274
     37 H14        -5.0581   -1.3393   -5.1349 H         1 <0>         0.1525
     38 H15        -9.0730   -2.7395   -5.7191 H         1 <0>         0.1434
     39 H16        -9.3259   -3.0754   -3.3178 H         1 <0>         0.1456
@<TRIPOS>BOND
     1    1    2 1
     2    1   25 1
     3    1   26 1
     4    1   27 1
     5    2    3 1
     6    2    4 1
     7    2    7 1
     8    4    5 1
     9    4   28 1
    10    4   29 1
    11    5    6 1
    12    6   30 1
    13    6   31 1
    14    6   32 1
    15    7    8 1
    16    7   33 1
    17    8   13 ar
    18    8    9 ar
    19    9   10 ar
    20    9   34 1
    21   10   11 ar
    22   10   35 1
    23   11   12 ar
    24   12   13 ar
    25   12   14 1
    26   14   18 1
    27   14   15 1
    28   15   16 2
    29   15   36 1
    30   16   17 1
    31   17   22 ar
    32   17   18 ar
    33   18   19 ar
    34   19   20 ar
    35   19   37 1
    36   20   21 ar
    37   20   23 1
    38   21   22 ar
    39   21   38 1
    40   22   39 1
    41   23   24 3
@<TRIPOS>MOLECULE
CHEMBL1088030
   50    53     0     0     0
SMALL
USER_CHARGES

@<TRIPOS>ATOM
      1 C1          6.4889   -3.8254   -0.0667 C.3       1 <0>        -0.0580
      2 C2          5.0075   -4.1021   -0.0583 C.2       1 <0>        -0.2192
      3 C3          4.3498   -5.2868   -0.0492 C.2       1 <0>         0.0611
      4 N1          3.0298   -5.2409   -0.0432 N.2       1 <0>        -0.5064
      5 C4          2.3900   -4.0910   -0.0460 C.2       1 <0>         0.2838
      6 S1          3.6358   -2.9594   -0.0497 S.3       1 <0>         0.0861
      7 N2          1.0204   -3.8660   -0.0411 N.pl3     1 <0>        -0.5962
      8 C5          0.1412   -4.9353   -0.1389 C.ar      1 <0>         0.4835
      9 C6         -1.2289   -4.7143   -0.2439 C.ar      1 <0>        -0.3876
     10 C7         -2.0723   -5.8172   -0.3401 C.ar      1 <0>         0.5020
     11 N3         -1.5446   -7.0392   -0.3286 N.ar      1 <0>        -0.6404
     12 C8         -0.2354   -7.2117   -0.2273 C.ar      1 <0>         0.6346
     13 N4          0.5975   -6.1857   -0.1390 N.ar      1 <0>        -0.5867
     14 N5          0.2761   -8.4976   -0.2183 N.pl3     1 <0>        -0.6865
     15 C9          1.7213   -8.7102   -0.1071 C.3       1 <0>         0.2366
     16 H1          2.2473   -7.9156   -0.6362 H         1 <0>         0.1316
     17 C10         2.1268   -8.6959    1.3682 C.3       1 <0>        -0.1485
     18 C11         2.0813  -10.0418   -0.7140 C.ar      1 <0>         0.3024
     19 N6          1.3395  -11.0947   -0.4351 N.ar      1 <0>        -0.4859
     20 C12         1.6237  -12.2803   -0.9493 C.ar      1 <0>         0.1307
     21 C13         2.7197  -12.4048   -1.7921 C.ar      1 <0>        -0.0050
     22 C14         3.4762  -11.2724   -2.0614 C.ar      1 <0>         0.1308
     23 N7          3.1261  -10.1200   -1.5134 N.ar      1 <0>        -0.4778
     24 F1          3.0425  -13.5985   -2.3362 F         1 <0>        -0.1161
     25 N8         -3.4438   -5.6453   -0.4460 N.pl3     1 <0>        -0.6015
     26 C15        -4.3615   -6.7900   -0.3331 C.3       1 <0>         0.0913
     27 C16        -5.4489   -6.4390    0.6889 C.3       1 <0>         0.0460
     28 O1         -6.0383   -5.1850    0.3370 O.3       1 <0>        -0.3790
     29 C17        -5.1286   -4.0824    0.3645 C.3       1 <0>         0.0465
     30 C18        -4.0252   -4.3120   -0.6685 C.3       1 <0>         0.0880
     31 H2          6.6573   -2.7484   -0.0674 H         1 <0>         0.0705
     32 H3          6.9454   -4.2639    0.8207 H         1 <0>         0.0791
     33 H4          6.9353   -4.2636   -0.9593 H         1 <0>         0.0796
     34 H5          4.8813   -6.2270   -0.0473 H         1 <0>         0.1711
     35 H6          0.6778   -2.9613    0.0307 H         1 <0>         0.4361
     36 H7         -1.6281   -3.7108   -0.2501 H         1 <0>         0.1376
     37 H8         -0.3223   -9.2580   -0.2857 H         1 <0>         0.4179
     38 H9          1.6008   -9.4905    1.8973 H         1 <0>         0.0585
     39 H10         3.2021   -8.8541    1.4509 H         1 <0>         0.0645
     40 H11         1.8664   -7.7328    1.8072 H         1 <0>         0.0772
     41 H12         1.0118  -13.1391   -0.7162 H         1 <0>         0.1840
     42 H13         4.3362  -11.3305   -2.7121 H         1 <0>         0.1844
     43 H14        -4.8192   -6.9906   -1.3018 H         1 <0>         0.0715
     44 H15        -3.8120   -7.6694    0.0030 H         1 <0>         0.1054
     45 H16        -6.2147   -7.2146    0.6866 H         1 <0>         0.1073
     46 H17        -5.0055   -6.3669    1.6820 H         1 <0>         0.0556
     47 H18        -5.6640   -3.1627    0.1288 H         1 <0>         0.1084
     48 H19        -4.6841   -4.0018    1.3564 H         1 <0>         0.0569
     49 H20        -3.2531   -3.5511   -0.5544 H         1 <0>         0.0966
     50 H21        -4.4484   -4.2588   -1.6716 H         1 <0>         0.0778
@<TRIPOS>BOND
     1    1    2 1
     2    1   31 1
     3    1   32 1
     4    1   33 1
     5    2    6 1
     6    2    3 2
     7    3    4 1
     8    3   34 1
     9    4    5 2
    10    5    6 1
    11    5    7 1
    12    7    8 1
    13    7   35 1
    14    8   13 ar
    15    8    9 ar
    16    9   10 ar
    17    9   36 1
    18   10   11 ar
    19   10   25 1
    20   11   12 ar
    21   12   13 ar
    22   12   14 1
    23   14   15 1
    24   14   37 1
    25   15   16 1
    26   15   17 1
    27   15   18 1
    28   17   38 1
    29   17   39 1
    30   17   40 1
    31   18   23 ar
    32   18   19 ar
    33   19   20 ar
    34   20   21 ar
    35   20   41 1
    36   21   22 ar
    37   21   24 1
    38   22   23 ar
    39   22   42 1
    40   25   30 1
    41   25   26 1
    42   26   27 1
    43   26   43 1
    44   26   44 1
    45   27   28 1
    46   27   45 1
    47   27   46 1
    48   28   29 1
    49   29   30 1
    50   29   47 1
    51   29   48 1
    52   30   49 1
    53   30   50 1
@<TRIPOS>MOLECULE
CHEMBL1088030__1
   51    54     0     0     0
SMALL
USER_CHARGES

@<TRIPOS>ATOM
      1 C1          6.4843   -3.8182    0.0163 C.3       1 <0>        -0.0702
      2 C2          5.0034   -4.0974    0.0110 C.2       1 <0>        -0.1822
      3 C3          4.3477   -5.2831   -0.0108 C.2       1 <0>         0.0443
      4 N1          3.0276   -5.2393   -0.0102 N.2       1 <0>        -0.4957
      5 C4          2.3858   -4.0907    0.0107 C.2       1 <0>         0.2215
      6 S1          3.6297   -2.9574    0.0395 S.3       1 <0>         0.1506
      7 N2          1.0159   -3.8681    0.0141 N.pl3     1 <0>        -0.5645
      8 C5          0.1389   -4.9363   -0.1115 C.ar      1 <0>         0.5362
      9 C6         -1.2312   -4.7154   -0.2153 C.ar      1 <0>        -0.3508
     10 C7         -2.0723   -5.8172   -0.3401 C.ar      1 <0>         0.5132
     11 N3         -1.5424   -7.0382   -0.3559 N.ar      1 <0>        -0.6042
     12 C8         -0.2332   -7.2107   -0.2548 C.ar      1 <0>         0.6774
     13 N4          0.5976   -6.1856   -0.1398 N.ar      1 <0>        -0.5324
     14 N5          0.2807   -8.4955   -0.2747 N.pl3     1 <0>        -0.6629
     15 C9         -0.6206   -9.6429   -0.4063 C.3       1 <0>         0.2086
     16 H1         -1.5531   -9.4345    0.1181 H         1 <0>         0.1093
     17 C10        -0.9132   -9.8945   -1.8868 C.3       1 <0>        -0.1751
     18 C11         0.0299  -10.8637    0.1917 C.ar      1 <0>         0.2814
     19 N6          1.2948  -11.1140   -0.0804 N.ar      1 <0>        -0.4809
     20 C12         1.9006  -12.1757    0.4262 C.ar      1 <0>         0.1372
     21 C13         1.1846  -13.0300    1.2537 C.ar      1 <0>         0.0205
     22 C14        -0.1456  -12.7320    1.5162 C.ar      1 <0>         0.1358
     23 N7         -0.6804  -11.6487    0.9765 N.ar      1 <0>        -0.4776
     24 F1          1.7677  -14.1244    1.7897 F         1 <0>        -0.1039
     25 N8         -3.4438   -5.6453   -0.4460 N.pl3     1 <0>        -0.5857
     26 C15        -4.3545   -6.8012   -0.4423 C.3       1 <0>         0.0613
     27 C16        -5.4550   -6.5463    0.5939 C.3       1 <0>         0.0472
     28 O1         -6.0496   -5.2703    0.3449 O.3       1 <0>        -0.3637
     29 C17        -5.1481   -4.1686    0.4774 C.3       1 <0>         0.0422
     30 C18        -4.0323   -4.3014   -0.5592 C.3       1 <0>         0.0768
     31 H2          6.6509   -2.7413    0.0415 H         1 <0>         0.0786
     32 H3          6.9373   -4.2766    0.8954 H         1 <0>         0.0890
     33 H4          6.9358   -4.2348   -0.8841 H         1 <0>         0.0894
     34 H5          4.8808   -6.2222   -0.0282 H         1 <0>         0.1804
     35 H6          0.6714   -2.9658    0.1044 H         1 <0>         0.4505
     36 H7         -1.6323   -3.7127   -0.1991 H         1 <0>         0.1814
     37 H8          1.2376   -8.6363   -0.2015 H         1 <0>         0.4507
     38 H9         -1.3837   -9.0115   -2.3193 H         1 <0>         0.0708
     39 H10         0.0194  -10.1029   -2.4112 H         1 <0>         0.0904
     40 H11        -1.5838  -10.7482   -1.9847 H         1 <0>         0.0937
     41 H12         2.9374  -12.3750    0.1989 H         1 <0>         0.1933
     42 H13        -0.7346  -13.3735    2.1549 H         1 <0>         0.1933
     43 H14        -4.8005   -6.9202   -1.4298 H         1 <0>         0.1098
     44 H15        -3.8023   -7.7028   -0.1772 H         1 <0>         0.0855
     45 H16        -6.2152   -7.3236    0.5164 H         1 <0>         0.1249
     46 H17        -5.0226   -6.5575    1.5945 H         1 <0>         0.0659
     47 H18        -5.6876   -3.2353    0.3160 H         1 <0>         0.1260
     48 H19        -4.7146   -4.1712    1.4775 H         1 <0>         0.0664
     49 H20        -3.2669   -3.5484   -0.3714 H         1 <0>         0.1121
     50 H21        -4.4453   -4.1645   -1.5586 H         1 <0>         0.1054
     51 H22        -2.1222   -7.8111   -0.4423 H         1 <0>         0.4287
@<TRIPOS>BOND
     1    1    2 1
     2    1   31 1
     3    1   32 1
     4    1   33 1
     5    2    6 1
     6    2    3 2
     7    3    4 1
     8    3   34 1
     9    4    5 2
    10    5    6 1
    11    5    7 1
    12    7    8 1
    13    7   35 1
    14    8   13 ar
    15    8    9 ar
    16    9   10 ar
    17    9   36 1
    18   10   11 ar
    19   10   25 1
    20   11   12 ar
    21   11   51 1
    22   12   13 ar
    23   12   14 1
    24   14   15 1
    25   14   37 1
    26   15   16 1
    27   15   17 1
    28   15   18 1
    29   17   38 1
    30   17   39 1
    31   17   40 1
    32   18   23 ar
    33   18   19 ar
    34   19   20 ar
    35   20   21 ar
    36   20   41 1
    37   21   22 ar
    38   21   24 1
    39   22   23 ar
    40   22   42 1
    41   25   30 1
    42   25   26 1
    43   26   27 1
    44   26   43 1
    45   26   44 1
    46   27   28 1
    47   27   45 1
    48   27   46 1
    49   28   29 1
    50   29   30 1
    51   29   47 1
    52   29   48 1
    53   30   49 1
    54   30   50 1
@<TRIPOS>MOLECULE
CHEMBL1088029
   41    43     0     0     0
SMALL
USER_CHARGES

@<TRIPOS>ATOM
      1 C1          6.4874   -3.8226   -0.0423 C.3       1 <0>        -0.0585
      2 C2          5.0062   -4.1002   -0.0375 C.2       1 <0>        -0.2177
      3 C3          4.3492   -5.2854   -0.0378 C.2       1 <0>         0.0592
      4 N1          3.0291   -5.2402   -0.0330 N.2       1 <0>        -0.5082
      5 C4          2.3886   -4.0907   -0.0280 C.2       1 <0>         0.2794
      6 S1          3.6338   -2.9584   -0.0220 S.3       1 <0>         0.0950
      7 N2          1.0189   -3.8665   -0.0229 N.pl3     1 <0>        -0.5929
      8 C5          0.1406   -4.9354   -0.1298 C.ar      1 <0>         0.4822
      9 C6         -1.2306   -4.7145   -0.2345 C.ar      1 <0>        -0.3425
     10 C7         -2.0719   -5.8150   -0.3399 C.ar      1 <0>         0.4247
     11 N3         -1.5451   -7.0358   -0.3375 N.ar      1 <0>        -0.6403
     12 C8         -0.2360   -7.2101   -0.2363 C.ar      1 <0>         0.6330
     13 N4          0.5972   -6.1852   -0.1392 N.ar      1 <0>        -0.5746
     14 N5          0.2748   -8.4962   -0.2374 N.pl3     1 <0>        -0.6827
     15 C9         -0.6295   -9.6434   -0.3495 C.3       1 <0>         0.2356
     16 H1         -1.5605   -9.4247    0.1734 H         1 <0>         0.1200
     17 C10        -0.9257   -9.9170   -1.8254 C.3       1 <0>        -0.1566
     18 C11         0.0193  -10.8564    0.2659 C.ar      1 <0>         0.3006
     19 N6          1.2831  -11.1138   -0.0047 N.ar      1 <0>        -0.4830
     20 C12         1.8874  -12.1691    0.5170 C.ar      1 <0>         0.1322
     21 C13         1.1710  -13.0088    1.3589 C.ar      1 <0>        -0.0023
     22 C14        -0.1579  -12.7037    1.6194 C.ar      1 <0>         0.1314
     23 N7         -0.6913  -11.6275    1.0642 N.ar      1 <0>        -0.4798
     24 F1          1.7527  -14.0963    1.9106 F         1 <0>        -0.1150
     25 O1         -3.4128   -5.6464   -0.4434 O.3       1 <0>        -0.2981
     26 C15        -4.2092   -6.8283   -0.5478 C.3       1 <0>         0.0385
     27 H2          6.6552   -2.7456   -0.0349 H         1 <0>         0.0716
     28 H3          6.9433   -4.2673    0.8423 H         1 <0>         0.0798
     29 H4          6.9351   -4.2539   -0.9376 H         1 <0>         0.0803
     30 H5          4.8813   -6.2252   -0.0423 H         1 <0>         0.1715
     31 H6          0.6757   -2.9627    0.0554 H         1 <0>         0.4394
     32 H7         -1.6305   -3.7113   -0.2334 H         1 <0>         0.1491
     33 H8          1.2315   -8.6382   -0.1639 H         1 <0>         0.4238
     34 H9         -1.3949   -9.0397   -2.2705 H         1 <0>         0.0759
     35 H10         0.0053  -10.1358   -2.3483 H         1 <0>         0.0656
     36 H11        -1.5984  -10.7706   -1.9088 H         1 <0>         0.0690
     37 H12         2.9232  -12.3744    0.2907 H         1 <0>         0.1851
     38 H13        -0.7472  -13.3338    2.2691 H         1 <0>         0.1855
     39 H14        -3.9149   -7.3874   -1.4361 H         1 <0>         0.0623
     40 H15        -4.0592   -7.4469    0.3370 H         1 <0>         0.0625
     41 H16        -5.2609   -6.5523   -0.6242 H         1 <0>         0.0991
@<TRIPOS>BOND
     1    1    2 1
     2    1   27 1
     3    1   28 1
     4    1   29 1
     5    2    6 1
     6    2    3 2
     7    3    4 1
     8    3   30 1
     9    4    5 2
    10    5    6 1
    11    5    7 1
    12    7    8 1
    13    7   31 1
    14    8   13 ar
    15    8    9 ar
    16    9   10 ar
    17    9   32 1
    18   10   11 ar
    19   10   25 1
    20   11   12 ar
    21   12   13 ar
    22   12   14 1
    23   14   15 1
    24   14   33 1
    25   15   16 1
    26   15   17 1
    27   15   18 1
    28   17   34 1
    29   17   35 1
    30   17   36 1
    31   18   23 ar
    32   18   19 ar
    33   19   20 ar
    34   20   21 ar
    35   20   37 1
    36   21   22 ar
    37   21   24 1
    38   22   23 ar
    39   22   38 1
    40   25   26 1
    41   26   39 1
    42   26   40 1
    43   26   41 1
@<TRIPOS>MOLECULE
CHEMBL1087898
   37    39     0     0     0
SMALL
USER_CHARGES

@<TRIPOS>ATOM
      1 C1          6.4870   -3.8217   -0.0413 C.3       1 <0>        -0.0582
      2 C2          5.0058   -4.0995   -0.0372 C.2       1 <0>        -0.2192
      3 C3          4.3489   -5.2847   -0.0385 C.2       1 <0>         0.0596
      4 N1          3.0288   -5.2397   -0.0340 N.2       1 <0>        -0.5145
      5 C4          2.3882   -4.0901   -0.0285 C.2       1 <0>         0.2805
      6 S1          3.6333   -2.9578   -0.0214 S.3       1 <0>         0.0929
      7 N2          1.0189   -3.8661   -0.0233 N.pl3     1 <0>        -0.5961
      8 C5          0.1383   -4.9378   -0.1309 C.ar      1 <0>         0.3817
      9 C6         -1.2301   -4.7072   -0.2350 C.ar      1 <0>        -0.0499
     10 N3         -2.0666   -5.7237   -0.3368 N.ar      1 <0>        -0.3695
     11 C7         -1.6086   -6.9624   -0.3406 C.ar      1 <0>        -0.0562
     12 C8         -0.2416   -7.2009   -0.2368 C.ar      1 <0>         0.3999
     13 N4          0.6028   -6.1813   -0.1399 N.ar      1 <0>        -0.4963
     14 N5          0.2395   -8.5049   -0.2405 N.pl3     1 <0>        -0.7017
     15 C9         -0.6927   -9.6293   -0.3536 C.3       1 <0>         0.2259
     16 H1         -1.6176   -9.3886    0.1705 H         1 <0>         0.1148
     17 C10        -0.9969   -9.8932   -1.8297 C.3       1 <0>        -0.1662
     18 C11        -0.0734  -10.8589    0.2592 C.ar      1 <0>         0.3006
     19 N6          1.1834  -11.1469   -0.0130 N.ar      1 <0>        -0.4817
     20 C12         1.7620  -12.2175    0.5064 C.ar      1 <0>         0.1324
     21 C13         1.0260  -13.0408    1.3476 C.ar      1 <0>        -0.0001
     22 C14        -0.2948  -12.7035    1.6099 C.ar      1 <0>         0.1322
     23 N7         -0.8021  -11.6136    1.0569 N.ar      1 <0>        -0.4796
     24 F1          1.5812  -14.1431    1.8971 F         1 <0>        -0.1141
     25 H2          6.6547   -2.7448   -0.0332 H         1 <0>         0.0716
     26 H3          6.9426   -4.2670    0.8431 H         1 <0>         0.0795
     27 H4          6.9349   -4.2525   -0.9368 H         1 <0>         0.0800
     28 H5          4.8811   -6.2245   -0.0434 H         1 <0>         0.1706
     29 H6          0.6756   -2.9623    0.0554 H         1 <0>         0.4391
     30 H7         -1.6083   -3.6956   -0.2323 H         1 <0>         0.1658
     31 H8         -2.2959   -7.7913   -0.4239 H         1 <0>         0.1650
     32 H9          1.1926   -8.6705   -0.1682 H         1 <0>         0.4162
     33 H10        -1.6905  -10.7298   -1.9138 H         1 <0>         0.0739
     34 H11        -1.4448   -9.0038   -2.2730 H         1 <0>         0.0774
     35 H12        -0.0720  -10.1339   -2.3538 H         1 <0>         0.0713
     36 H13         2.7923  -12.4479    0.2789 H         1 <0>         0.1856
     37 H14        -0.8988  -13.3200    2.2591 H         1 <0>         0.1866
@<TRIPOS>BOND
     1    1    2 1
     2    1   25 1
     3    1   26 1
     4    1   27 1
     5    2    6 1
     6    2    3 2
     7    3    4 1
     8    3   28 1
     9    4    5 2
    10    5    6 1
    11    5    7 1
    12    7    8 1
    13    7   29 1
    14    8   13 ar
    15    8    9 ar
    16    9   10 ar
    17    9   30 1
    18   10   11 ar
    19   11   12 ar
    20   11   31 1
    21   12   13 ar
    22   12   14 1
    23   14   15 1
    24   14   32 1
    25   15   16 1
    26   15   17 1
    27   15   18 1
    28   17   33 1
    29   17   34 1
    30   17   35 1
    31   18   23 ar
    32   18   19 ar
    33   19   20 ar
    34   20   21 ar
    35   20   36 1
    36   21   22 ar
    37   21   24 1
    38   22   23 ar
    39   22   37 1
@<TRIPOS>MOLECULE
CHEMBL570002
   39    41     0     0     0
SMALL
USER_CHARGES

@<TRIPOS>ATOM
      1 C1          0.0236   -8.2359   -1.0376 C.3       1 <0>        -0.0966
      2 C2          0.0410   -6.7617   -0.7253 C.2       1 <0>         0.0963
      3 C3          0.0205   -5.7561   -1.6293 C.2       1 <0>        -0.2709
      4 C4          0.0479   -4.5420   -0.9239 C.2       1 <0>         0.3053
      5 N1          0.0836   -4.8178    0.3588 N.2       1 <0>        -0.3224
      6 N2          0.0741   -6.2107    0.5064 N.pl3     1 <0>        -0.4669
      7 H1          0.0907   -6.6948    1.3468 H         1 <0>         0.4407
      8 N3          0.0392   -3.2613   -1.4899 N.pl3     1 <0>        -0.6010
      9 C5          0.1351   -3.1105   -2.8641 C.ar      1 <0>         0.4347
     10 C6          0.2262   -1.8317   -3.4203 C.ar      1 <0>        -0.0330
     11 N4          0.3175   -1.6812   -4.7239 N.ar      1 <0>        -0.3277
     12 C7          0.3239   -2.7493   -5.5206 C.ar      1 <0>         0.0114
     13 C8          0.2329   -4.0368   -4.9647 C.ar      1 <0>         0.4569
     14 N5          0.1457   -4.1814   -3.6485 N.ar      1 <0>        -0.5397
     15 N6          0.2386   -5.1501   -5.7866 N.pl3     1 <0>        -0.6910
     16 C9          0.1436   -6.4910   -5.2043 C.3       1 <0>         0.2200
     17 H2          0.6722   -6.5116   -4.2513 H         1 <0>         0.1263
     18 C10        -1.3275   -6.8463   -4.9793 C.3       1 <0>        -0.1620
     19 C11         0.7640   -7.4921   -6.1445 C.ar      1 <0>         0.2961
     20 N7          0.4852   -7.4214   -7.4306 N.ar      1 <0>        -0.4863
     21 C12         1.0109   -8.2822   -8.2870 C.ar      1 <0>         0.1330
     22 C13         1.8657   -9.2682   -7.8134 C.ar      1 <0>         0.0011
     23 C14         2.1345   -9.3094   -6.4521 C.ar      1 <0>         0.1323
     24 N8          1.5745   -8.4106   -5.6587 N.ar      1 <0>        -0.4769
     25 F1          2.4219  -10.1656   -8.6563 F         1 <0>        -0.1134
     26 C15         0.4228   -2.5856   -6.9398 C.1       1 <0>         0.2731
     27 N9          0.5013   -2.4557   -8.0656 N.1       1 <0>        -0.3972
     28 H3         -1.0079   -8.5844   -1.0881 H         1 <0>         0.0822
     29 H4          0.5132   -8.4101   -1.9957 H         1 <0>         0.0904
     30 H5          0.5529   -8.7794   -0.2550 H         1 <0>         0.0723
     31 H6         -0.0108   -5.8669   -2.7031 H         1 <0>         0.1817
     32 H7         -0.0340   -2.4797   -0.9202 H         1 <0>         0.4325
     33 H8          0.2213   -0.9638   -2.7776 H         1 <0>         0.1806
     34 H9          0.3054   -5.0426   -6.7483 H         1 <0>         0.4221
     35 H10        -1.3982   -7.8440   -4.5460 H         1 <0>         0.0737
     36 H11        -1.7762   -6.1222   -4.2992 H         1 <0>         0.0808
     37 H12        -1.8561   -6.8257   -5.9323 H         1 <0>         0.0687
     38 H13         0.7780   -8.2189   -9.3397 H         1 <0>         0.1860
     39 H14         2.7943  -10.0622   -6.0468 H         1 <0>         0.1868
@<TRIPOS>BOND
     1    1    2 1
     2    1   28 1
     3    1   29 1
     4    1   30 1
     5    2    6 1
     6    2    3 2
     7    3    4 1
     8    3   31 1
     9    4    5 2
    10    4    8 1
    11    5    6 1
    12    6    7 1
    13    8    9 1
    14    8   32 1
    15    9   14 ar
    16    9   10 ar
    17   10   11 ar
    18   10   33 1
    19   11   12 ar
    20   12   13 ar
    21   12   26 1
    22   13   14 ar
    23   13   15 1
    24   15   16 1
    25   15   34 1
    26   16   17 1
    27   16   18 1
    28   16   19 1
    29   18   35 1
    30   18   36 1
    31   18   37 1
    32   19   24 ar
    33   19   20 ar
    34   20   21 ar
    35   21   22 ar
    36   21   38 1
    37   22   23 ar
    38   22   25 1
    39   23   24 ar
    40   23   39 1
    41   26   27 3
